
---------- Begin Simulation Statistics ----------
simSeconds                                   0.326444                       # Number of seconds simulated (Second)
simTicks                                 326444307250                       # Number of ticks simulated (Tick)
finalTick                                326444307250                       # Number of ticks from beginning of simulation (restored from checkpoints and never reset) (Tick)
simFreq                                  1000000000000                       # The number of ticks per simulated second ((Tick/Second))
hostSeconds                                   3800.30                       # Real time elapsed on the host (Second)
hostTickRate                                 85899515                       # The number of ticks simulated per host second (ticks/s) ((Tick/Second))
hostMemory                                    9412592                       # Number of bytes of host memory used (Byte)
simInsts                                    509027043                       # Number of instructions simulated (Count)
simOps                                      905893490                       # Number of ops (including micro ops) simulated (Count)
hostInstRate                                   133944                       # Simulator instruction rate (inst/s) ((Count/Second))
hostOpRate                                     238374                       # Simulator op (including micro ops) rate (op/s) ((Count/Second))
system.clk_domain.clock                           667                       # Clock period in ticks (Tick)
system.clk_domain.voltage_domain.voltage            1                       # Voltage in Volts (Volt)
system.cpu0.numCycles                       489421751                       # Number of cpu cycles simulated (Cycle)
system.cpu0.cpi                              0.961485                       # CPI: cycles per instruction (core level) ((Cycle/Count))
system.cpu0.ipc                              1.040058                       # IPC: instructions per cycle (core level) ((Count/Cycle))
system.cpu0.numWorkItemsStarted                     0                       # Number of work items this cpu started (Count)
system.cpu0.numWorkItemsCompleted                   0                       # Number of work items this cpu completed (Count)
system.cpu0.instsAdded                     1014979933                       # Number of instructions added to the IQ (excludes non-spec) (Count)
system.cpu0.nonSpecInstsAdded                   39380                       # Number of non-speculative instructions added to the IQ (Count)
system.cpu0.instsIssued                     981333821                       # Number of instructions issued (Count)
system.cpu0.squashedInstsIssued                372508                       # Number of squashed instructions issued (Count)
system.cpu0.squashedInstsExamined           109125817                       # Number of squashed instructions iterated over during squash; mainly for profiling (Count)
system.cpu0.squashedOperandsExamined        185729340                       # Number of squashed operands that are examined and possibly removed from graph (Count)
system.cpu0.squashedNonSpecRemoved               8585                       # Number of squashed non-spec instructions that were removed (Count)
system.cpu0.numIssuedDist::samples          465106960                       # Number of insts issued each cycle (Count)
system.cpu0.numIssuedDist::mean              2.109910                       # Number of insts issued each cycle (Count)
system.cpu0.numIssuedDist::stdev             2.541430                       # Number of insts issued each cycle (Count)
system.cpu0.numIssuedDist::underflows               0      0.00%      0.00% # Number of insts issued each cycle (Count)
system.cpu0.numIssuedDist::0                221997097     47.73%     47.73% # Number of insts issued each cycle (Count)
system.cpu0.numIssuedDist::1                 33655034      7.24%     54.97% # Number of insts issued each cycle (Count)
system.cpu0.numIssuedDist::2                 37844387      8.14%     63.10% # Number of insts issued each cycle (Count)
system.cpu0.numIssuedDist::3                 37952087      8.16%     71.26% # Number of insts issued each cycle (Count)
system.cpu0.numIssuedDist::4                 35393327      7.61%     78.87% # Number of insts issued each cycle (Count)
system.cpu0.numIssuedDist::5                 30047328      6.46%     85.33% # Number of insts issued each cycle (Count)
system.cpu0.numIssuedDist::6                 27923378      6.00%     91.34% # Number of insts issued each cycle (Count)
system.cpu0.numIssuedDist::7                 23571040      5.07%     96.40% # Number of insts issued each cycle (Count)
system.cpu0.numIssuedDist::8                 16723282      3.60%    100.00% # Number of insts issued each cycle (Count)
system.cpu0.numIssuedDist::overflows                0      0.00%    100.00% # Number of insts issued each cycle (Count)
system.cpu0.numIssuedDist::min_value                0                       # Number of insts issued each cycle (Count)
system.cpu0.numIssuedDist::max_value                8                       # Number of insts issued each cycle (Count)
system.cpu0.numIssuedDist::total            465106960                       # Number of insts issued each cycle (Count)
system.cpu0.statFuBusy::No_OpClass                  0      0.00%      0.00% # attempts to use FU when none available (Count)
system.cpu0.statFuBusy::IntAlu                8891361     86.23%     86.23% # attempts to use FU when none available (Count)
system.cpu0.statFuBusy::IntMult                     0      0.00%     86.23% # attempts to use FU when none available (Count)
system.cpu0.statFuBusy::IntDiv                      0      0.00%     86.23% # attempts to use FU when none available (Count)
system.cpu0.statFuBusy::FloatAdd                    0      0.00%     86.23% # attempts to use FU when none available (Count)
system.cpu0.statFuBusy::FloatCmp                    0      0.00%     86.23% # attempts to use FU when none available (Count)
system.cpu0.statFuBusy::FloatCvt                    0      0.00%     86.23% # attempts to use FU when none available (Count)
system.cpu0.statFuBusy::FloatMult                   0      0.00%     86.23% # attempts to use FU when none available (Count)
system.cpu0.statFuBusy::FloatMultAcc                0      0.00%     86.23% # attempts to use FU when none available (Count)
system.cpu0.statFuBusy::FloatDiv                    0      0.00%     86.23% # attempts to use FU when none available (Count)
system.cpu0.statFuBusy::FloatMisc                   0      0.00%     86.23% # attempts to use FU when none available (Count)
system.cpu0.statFuBusy::FloatSqrt                   0      0.00%     86.23% # attempts to use FU when none available (Count)
system.cpu0.statFuBusy::SimdAdd                    74      0.00%     86.23% # attempts to use FU when none available (Count)
system.cpu0.statFuBusy::SimdAddAcc                  0      0.00%     86.23% # attempts to use FU when none available (Count)
system.cpu0.statFuBusy::SimdAlu                 23263      0.23%     86.45% # attempts to use FU when none available (Count)
system.cpu0.statFuBusy::SimdCmp                    52      0.00%     86.45% # attempts to use FU when none available (Count)
system.cpu0.statFuBusy::SimdCvt                  1384      0.01%     86.47% # attempts to use FU when none available (Count)
system.cpu0.statFuBusy::SimdMisc                 3715      0.04%     86.50% # attempts to use FU when none available (Count)
system.cpu0.statFuBusy::SimdMult                    0      0.00%     86.50% # attempts to use FU when none available (Count)
system.cpu0.statFuBusy::SimdMultAcc                 0      0.00%     86.50% # attempts to use FU when none available (Count)
system.cpu0.statFuBusy::SimdMatMultAcc              0      0.00%     86.50% # attempts to use FU when none available (Count)
system.cpu0.statFuBusy::SimdShift                 365      0.00%     86.51% # attempts to use FU when none available (Count)
system.cpu0.statFuBusy::SimdShiftAcc                0      0.00%     86.51% # attempts to use FU when none available (Count)
system.cpu0.statFuBusy::SimdDiv                     0      0.00%     86.51% # attempts to use FU when none available (Count)
system.cpu0.statFuBusy::SimdSqrt                    0      0.00%     86.51% # attempts to use FU when none available (Count)
system.cpu0.statFuBusy::SimdFloatAdd                0      0.00%     86.51% # attempts to use FU when none available (Count)
system.cpu0.statFuBusy::SimdFloatAlu                0      0.00%     86.51% # attempts to use FU when none available (Count)
system.cpu0.statFuBusy::SimdFloatCmp                0      0.00%     86.51% # attempts to use FU when none available (Count)
system.cpu0.statFuBusy::SimdFloatCvt                0      0.00%     86.51% # attempts to use FU when none available (Count)
system.cpu0.statFuBusy::SimdFloatDiv                0      0.00%     86.51% # attempts to use FU when none available (Count)
system.cpu0.statFuBusy::SimdFloatMisc               0      0.00%     86.51% # attempts to use FU when none available (Count)
system.cpu0.statFuBusy::SimdFloatMult               0      0.00%     86.51% # attempts to use FU when none available (Count)
system.cpu0.statFuBusy::SimdFloatMultAcc            0      0.00%     86.51% # attempts to use FU when none available (Count)
system.cpu0.statFuBusy::SimdFloatMatMultAcc            0      0.00%     86.51% # attempts to use FU when none available (Count)
system.cpu0.statFuBusy::SimdFloatSqrt               0      0.00%     86.51% # attempts to use FU when none available (Count)
system.cpu0.statFuBusy::SimdReduceAdd               0      0.00%     86.51% # attempts to use FU when none available (Count)
system.cpu0.statFuBusy::SimdReduceAlu               0      0.00%     86.51% # attempts to use FU when none available (Count)
system.cpu0.statFuBusy::SimdReduceCmp               0      0.00%     86.51% # attempts to use FU when none available (Count)
system.cpu0.statFuBusy::SimdFloatReduceAdd            0      0.00%     86.51% # attempts to use FU when none available (Count)
system.cpu0.statFuBusy::SimdFloatReduceCmp            0      0.00%     86.51% # attempts to use FU when none available (Count)
system.cpu0.statFuBusy::SimdAes                     0      0.00%     86.51% # attempts to use FU when none available (Count)
system.cpu0.statFuBusy::SimdAesMix                  0      0.00%     86.51% # attempts to use FU when none available (Count)
system.cpu0.statFuBusy::SimdSha1Hash                0      0.00%     86.51% # attempts to use FU when none available (Count)
system.cpu0.statFuBusy::SimdSha1Hash2               0      0.00%     86.51% # attempts to use FU when none available (Count)
system.cpu0.statFuBusy::SimdSha256Hash              0      0.00%     86.51% # attempts to use FU when none available (Count)
system.cpu0.statFuBusy::SimdSha256Hash2             0      0.00%     86.51% # attempts to use FU when none available (Count)
system.cpu0.statFuBusy::SimdShaSigma2               0      0.00%     86.51% # attempts to use FU when none available (Count)
system.cpu0.statFuBusy::SimdShaSigma3               0      0.00%     86.51% # attempts to use FU when none available (Count)
system.cpu0.statFuBusy::SimdPredAlu                 0      0.00%     86.51% # attempts to use FU when none available (Count)
system.cpu0.statFuBusy::Matrix                      0      0.00%     86.51% # attempts to use FU when none available (Count)
system.cpu0.statFuBusy::MatrixMov                   0      0.00%     86.51% # attempts to use FU when none available (Count)
system.cpu0.statFuBusy::MatrixOP                    0      0.00%     86.51% # attempts to use FU when none available (Count)
system.cpu0.statFuBusy::MemRead               1054627     10.23%     96.73% # attempts to use FU when none available (Count)
system.cpu0.statFuBusy::MemWrite               257106      2.49%     99.23% # attempts to use FU when none available (Count)
system.cpu0.statFuBusy::FloatMemRead            48584      0.47%     99.70% # attempts to use FU when none available (Count)
system.cpu0.statFuBusy::FloatMemWrite           31133      0.30%    100.00% # attempts to use FU when none available (Count)
system.cpu0.statFuBusy::IprAccess                   0      0.00%    100.00% # attempts to use FU when none available (Count)
system.cpu0.statFuBusy::InstPrefetch                0      0.00%    100.00% # attempts to use FU when none available (Count)
system.cpu0.statFuBusy::VectorUnitStrideLoad            0      0.00%    100.00% # attempts to use FU when none available (Count)
system.cpu0.statFuBusy::VectorUnitStrideStore            0      0.00%    100.00% # attempts to use FU when none available (Count)
system.cpu0.statFuBusy::VectorUnitStrideMaskLoad            0      0.00%    100.00% # attempts to use FU when none available (Count)
system.cpu0.statFuBusy::VectorUnitStrideMaskStore            0      0.00%    100.00% # attempts to use FU when none available (Count)
system.cpu0.statFuBusy::VectorStridedLoad            0      0.00%    100.00% # attempts to use FU when none available (Count)
system.cpu0.statFuBusy::VectorStridedStore            0      0.00%    100.00% # attempts to use FU when none available (Count)
system.cpu0.statFuBusy::VectorIndexedLoad            0      0.00%    100.00% # attempts to use FU when none available (Count)
system.cpu0.statFuBusy::VectorIndexedStore            0      0.00%    100.00% # attempts to use FU when none available (Count)
system.cpu0.statFuBusy::VectorUnitStrideFaultOnlyFirstLoad            0      0.00%    100.00% # attempts to use FU when none available (Count)
system.cpu0.statFuBusy::VectorWholeRegisterLoad            0      0.00%    100.00% # attempts to use FU when none available (Count)
system.cpu0.statFuBusy::VectorWholeRegisterStore            0      0.00%    100.00% # attempts to use FU when none available (Count)
system.cpu0.statFuBusy::VectorIntegerArith            0      0.00%    100.00% # attempts to use FU when none available (Count)
system.cpu0.statFuBusy::VectorFloatArith            0      0.00%    100.00% # attempts to use FU when none available (Count)
system.cpu0.statFuBusy::VectorFloatConvert            0      0.00%    100.00% # attempts to use FU when none available (Count)
system.cpu0.statFuBusy::VectorIntegerReduce            0      0.00%    100.00% # attempts to use FU when none available (Count)
system.cpu0.statFuBusy::VectorFloatReduce            0      0.00%    100.00% # attempts to use FU when none available (Count)
system.cpu0.statFuBusy::VectorMisc                  0      0.00%    100.00% # attempts to use FU when none available (Count)
system.cpu0.statFuBusy::VectorIntegerExtension            0      0.00%    100.00% # attempts to use FU when none available (Count)
system.cpu0.statFuBusy::VectorConfig                0      0.00%    100.00% # attempts to use FU when none available (Count)
system.cpu0.statIssuedInstType_0::No_OpClass     15303852      1.56%      1.56% # Number of instructions issued per FU type, per thread (Count)
system.cpu0.statIssuedInstType_0::IntAlu    715724301     72.93%     74.49% # Number of instructions issued per FU type, per thread (Count)
system.cpu0.statIssuedInstType_0::IntMult       286090      0.03%     74.52% # Number of instructions issued per FU type, per thread (Count)
system.cpu0.statIssuedInstType_0::IntDiv       398078      0.04%     74.56% # Number of instructions issued per FU type, per thread (Count)
system.cpu0.statIssuedInstType_0::FloatAdd      1668907      0.17%     74.73% # Number of instructions issued per FU type, per thread (Count)
system.cpu0.statIssuedInstType_0::FloatCmp            1      0.00%     74.73% # Number of instructions issued per FU type, per thread (Count)
system.cpu0.statIssuedInstType_0::FloatCvt           64      0.00%     74.73% # Number of instructions issued per FU type, per thread (Count)
system.cpu0.statIssuedInstType_0::FloatMult            9      0.00%     74.73% # Number of instructions issued per FU type, per thread (Count)
system.cpu0.statIssuedInstType_0::FloatMultAcc            0      0.00%     74.73% # Number of instructions issued per FU type, per thread (Count)
system.cpu0.statIssuedInstType_0::FloatDiv           34      0.00%     74.73% # Number of instructions issued per FU type, per thread (Count)
system.cpu0.statIssuedInstType_0::FloatMisc            0      0.00%     74.73% # Number of instructions issued per FU type, per thread (Count)
system.cpu0.statIssuedInstType_0::FloatSqrt            0      0.00%     74.73% # Number of instructions issued per FU type, per thread (Count)
system.cpu0.statIssuedInstType_0::SimdAdd        21207      0.00%     74.74% # Number of instructions issued per FU type, per thread (Count)
system.cpu0.statIssuedInstType_0::SimdAddAcc            0      0.00%     74.74% # Number of instructions issued per FU type, per thread (Count)
system.cpu0.statIssuedInstType_0::SimdAlu       937502      0.10%     74.83% # Number of instructions issued per FU type, per thread (Count)
system.cpu0.statIssuedInstType_0::SimdCmp         9074      0.00%     74.83% # Number of instructions issued per FU type, per thread (Count)
system.cpu0.statIssuedInstType_0::SimdCvt       123636      0.01%     74.84% # Number of instructions issued per FU type, per thread (Count)
system.cpu0.statIssuedInstType_0::SimdMisc      1172053      0.12%     74.96% # Number of instructions issued per FU type, per thread (Count)
system.cpu0.statIssuedInstType_0::SimdMult            0      0.00%     74.96% # Number of instructions issued per FU type, per thread (Count)
system.cpu0.statIssuedInstType_0::SimdMultAcc            0      0.00%     74.96% # Number of instructions issued per FU type, per thread (Count)
system.cpu0.statIssuedInstType_0::SimdMatMultAcc            0      0.00%     74.96% # Number of instructions issued per FU type, per thread (Count)
system.cpu0.statIssuedInstType_0::SimdShift        11234      0.00%     74.96% # Number of instructions issued per FU type, per thread (Count)
system.cpu0.statIssuedInstType_0::SimdShiftAcc            0      0.00%     74.96% # Number of instructions issued per FU type, per thread (Count)
system.cpu0.statIssuedInstType_0::SimdDiv            0      0.00%     74.96% # Number of instructions issued per FU type, per thread (Count)
system.cpu0.statIssuedInstType_0::SimdSqrt            0      0.00%     74.96% # Number of instructions issued per FU type, per thread (Count)
system.cpu0.statIssuedInstType_0::SimdFloatAdd       730123      0.07%     75.04% # Number of instructions issued per FU type, per thread (Count)
system.cpu0.statIssuedInstType_0::SimdFloatAlu            0      0.00%     75.04% # Number of instructions issued per FU type, per thread (Count)
system.cpu0.statIssuedInstType_0::SimdFloatCmp            1      0.00%     75.04% # Number of instructions issued per FU type, per thread (Count)
system.cpu0.statIssuedInstType_0::SimdFloatCvt       495307      0.05%     75.09% # Number of instructions issued per FU type, per thread (Count)
system.cpu0.statIssuedInstType_0::SimdFloatDiv         8201      0.00%     75.09% # Number of instructions issued per FU type, per thread (Count)
system.cpu0.statIssuedInstType_0::SimdFloatMisc            0      0.00%     75.09% # Number of instructions issued per FU type, per thread (Count)
system.cpu0.statIssuedInstType_0::SimdFloatMult       528091      0.05%     75.14% # Number of instructions issued per FU type, per thread (Count)
system.cpu0.statIssuedInstType_0::SimdFloatMultAcc            0      0.00%     75.14% # Number of instructions issued per FU type, per thread (Count)
system.cpu0.statIssuedInstType_0::SimdFloatMatMultAcc            0      0.00%     75.14% # Number of instructions issued per FU type, per thread (Count)
system.cpu0.statIssuedInstType_0::SimdFloatSqrt            2      0.00%     75.14% # Number of instructions issued per FU type, per thread (Count)
system.cpu0.statIssuedInstType_0::SimdReduceAdd            0      0.00%     75.14% # Number of instructions issued per FU type, per thread (Count)
system.cpu0.statIssuedInstType_0::SimdReduceAlu            0      0.00%     75.14% # Number of instructions issued per FU type, per thread (Count)
system.cpu0.statIssuedInstType_0::SimdReduceCmp            0      0.00%     75.14% # Number of instructions issued per FU type, per thread (Count)
system.cpu0.statIssuedInstType_0::SimdFloatReduceAdd            0      0.00%     75.14% # Number of instructions issued per FU type, per thread (Count)
system.cpu0.statIssuedInstType_0::SimdFloatReduceCmp            0      0.00%     75.14% # Number of instructions issued per FU type, per thread (Count)
system.cpu0.statIssuedInstType_0::SimdAes            0      0.00%     75.14% # Number of instructions issued per FU type, per thread (Count)
system.cpu0.statIssuedInstType_0::SimdAesMix            0      0.00%     75.14% # Number of instructions issued per FU type, per thread (Count)
system.cpu0.statIssuedInstType_0::SimdSha1Hash            0      0.00%     75.14% # Number of instructions issued per FU type, per thread (Count)
system.cpu0.statIssuedInstType_0::SimdSha1Hash2            0      0.00%     75.14% # Number of instructions issued per FU type, per thread (Count)
system.cpu0.statIssuedInstType_0::SimdSha256Hash            0      0.00%     75.14% # Number of instructions issued per FU type, per thread (Count)
system.cpu0.statIssuedInstType_0::SimdSha256Hash2            0      0.00%     75.14% # Number of instructions issued per FU type, per thread (Count)
system.cpu0.statIssuedInstType_0::SimdShaSigma2            0      0.00%     75.14% # Number of instructions issued per FU type, per thread (Count)
system.cpu0.statIssuedInstType_0::SimdShaSigma3            0      0.00%     75.14% # Number of instructions issued per FU type, per thread (Count)
system.cpu0.statIssuedInstType_0::SimdPredAlu            0      0.00%     75.14% # Number of instructions issued per FU type, per thread (Count)
system.cpu0.statIssuedInstType_0::Matrix            0      0.00%     75.14% # Number of instructions issued per FU type, per thread (Count)
system.cpu0.statIssuedInstType_0::MatrixMov            0      0.00%     75.14% # Number of instructions issued per FU type, per thread (Count)
system.cpu0.statIssuedInstType_0::MatrixOP            0      0.00%     75.14% # Number of instructions issued per FU type, per thread (Count)
system.cpu0.statIssuedInstType_0::MemRead    162924920     16.60%     91.75% # Number of instructions issued per FU type, per thread (Count)
system.cpu0.statIssuedInstType_0::MemWrite     76385429      7.78%     99.53% # Number of instructions issued per FU type, per thread (Count)
system.cpu0.statIssuedInstType_0::FloatMemRead      2414616      0.25%     99.78% # Number of instructions issued per FU type, per thread (Count)
system.cpu0.statIssuedInstType_0::FloatMemWrite      2191089      0.22%    100.00% # Number of instructions issued per FU type, per thread (Count)
system.cpu0.statIssuedInstType_0::IprAccess            0      0.00%    100.00% # Number of instructions issued per FU type, per thread (Count)
system.cpu0.statIssuedInstType_0::InstPrefetch            0      0.00%    100.00% # Number of instructions issued per FU type, per thread (Count)
system.cpu0.statIssuedInstType_0::VectorUnitStrideLoad            0      0.00%    100.00% # Number of instructions issued per FU type, per thread (Count)
system.cpu0.statIssuedInstType_0::VectorUnitStrideStore            0      0.00%    100.00% # Number of instructions issued per FU type, per thread (Count)
system.cpu0.statIssuedInstType_0::VectorUnitStrideMaskLoad            0      0.00%    100.00% # Number of instructions issued per FU type, per thread (Count)
system.cpu0.statIssuedInstType_0::VectorUnitStrideMaskStore            0      0.00%    100.00% # Number of instructions issued per FU type, per thread (Count)
system.cpu0.statIssuedInstType_0::VectorStridedLoad            0      0.00%    100.00% # Number of instructions issued per FU type, per thread (Count)
system.cpu0.statIssuedInstType_0::VectorStridedStore            0      0.00%    100.00% # Number of instructions issued per FU type, per thread (Count)
system.cpu0.statIssuedInstType_0::VectorIndexedLoad            0      0.00%    100.00% # Number of instructions issued per FU type, per thread (Count)
system.cpu0.statIssuedInstType_0::VectorIndexedStore            0      0.00%    100.00% # Number of instructions issued per FU type, per thread (Count)
system.cpu0.statIssuedInstType_0::VectorUnitStrideFaultOnlyFirstLoad            0      0.00%    100.00% # Number of instructions issued per FU type, per thread (Count)
system.cpu0.statIssuedInstType_0::VectorWholeRegisterLoad            0      0.00%    100.00% # Number of instructions issued per FU type, per thread (Count)
system.cpu0.statIssuedInstType_0::VectorWholeRegisterStore            0      0.00%    100.00% # Number of instructions issued per FU type, per thread (Count)
system.cpu0.statIssuedInstType_0::VectorIntegerArith            0      0.00%    100.00% # Number of instructions issued per FU type, per thread (Count)
system.cpu0.statIssuedInstType_0::VectorFloatArith            0      0.00%    100.00% # Number of instructions issued per FU type, per thread (Count)
system.cpu0.statIssuedInstType_0::VectorFloatConvert            0      0.00%    100.00% # Number of instructions issued per FU type, per thread (Count)
system.cpu0.statIssuedInstType_0::VectorIntegerReduce            0      0.00%    100.00% # Number of instructions issued per FU type, per thread (Count)
system.cpu0.statIssuedInstType_0::VectorFloatReduce            0      0.00%    100.00% # Number of instructions issued per FU type, per thread (Count)
system.cpu0.statIssuedInstType_0::VectorMisc            0      0.00%    100.00% # Number of instructions issued per FU type, per thread (Count)
system.cpu0.statIssuedInstType_0::VectorIntegerExtension            0      0.00%    100.00% # Number of instructions issued per FU type, per thread (Count)
system.cpu0.statIssuedInstType_0::VectorConfig            0      0.00%    100.00% # Number of instructions issued per FU type, per thread (Count)
system.cpu0.statIssuedInstType_0::total     981333821                       # Number of instructions issued per FU type, per thread (Count)
system.cpu0.issueRate                        2.005088                       # Inst issue rate ((Count/Cycle))
system.cpu0.fuBusy                           10311664                       # FU busy when requested (Count)
system.cpu0.fuBusyRate                       0.010508                       # FU busy rate (busy events/executed inst) ((Count/Count))
system.cpu0.intInstQueueReads              2416265803                       # Number of integer instruction queue reads (Count)
system.cpu0.intInstQueueWrites             1111884506                       # Number of integer instruction queue writes (Count)
system.cpu0.intInstQueueWakeupAccesses      960604083                       # Number of integer instruction queue wakeup accesses (Count)
system.cpu0.fpInstQueueReads                 22192971                       # Number of floating instruction queue reads (Count)
system.cpu0.fpInstQueueWrites                12308791                       # Number of floating instruction queue writes (Count)
system.cpu0.fpInstQueueWakeupAccesses        10894189                       # Number of floating instruction queue wakeup accesses (Count)
system.cpu0.vecInstQueueReads                       0                       # Number of vector instruction queue reads (Count)
system.cpu0.vecInstQueueWrites                      0                       # Number of vector instruction queue writes (Count)
system.cpu0.vecInstQueueWakeupAccesses              0                       # Number of vector instruction queue wakeup accesses (Count)
system.cpu0.intAluAccesses                  965195890                       # Number of integer alu accesses (Count)
system.cpu0.fpAluAccesses                    11145743                       # Number of floating point alu accesses (Count)
system.cpu0.vecAluAccesses                          0                       # Number of vector alu accesses (Count)
system.cpu0.numSquashedInsts                  5958732                       # Number of squashed instructions skipped in execute (Count)
system.cpu0.numSwp                                  0                       # Number of swp insts executed (Count)
system.cpu0.timesIdled                        2998104                       # Number of times that the entire CPU went into an idle state and unscheduled itself (Count)
system.cpu0.idleCycles                       24314791                       # Total number of cycles that the CPU has spent unscheduled due to idling (Cycle)
system.cpu0.MemDepUnit__0.insertedLoads     170432208                       # Number of loads inserted to the mem dependence unit. (Count)
system.cpu0.MemDepUnit__0.insertedStores     81978399                       # Number of stores inserted to the mem dependence unit. (Count)
system.cpu0.MemDepUnit__0.conflictingLoads      6739419                       # Number of conflicting loads. (Count)
system.cpu0.MemDepUnit__0.conflictingStores      4263079                       # Number of conflicting stores. (Count)
system.cpu0.MemDepUnit__1.insertedLoads             0                       # Number of loads inserted to the mem dependence unit. (Count)
system.cpu0.MemDepUnit__1.insertedStores            0                       # Number of stores inserted to the mem dependence unit. (Count)
system.cpu0.MemDepUnit__1.conflictingLoads            0                       # Number of conflicting loads. (Count)
system.cpu0.MemDepUnit__1.conflictingStores            0                       # Number of conflicting stores. (Count)
system.cpu0.MemDepUnit__2.insertedLoads             0                       # Number of loads inserted to the mem dependence unit. (Count)
system.cpu0.MemDepUnit__2.insertedStores            0                       # Number of stores inserted to the mem dependence unit. (Count)
system.cpu0.MemDepUnit__2.conflictingLoads            0                       # Number of conflicting loads. (Count)
system.cpu0.MemDepUnit__2.conflictingStores            0                       # Number of conflicting stores. (Count)
system.cpu0.MemDepUnit__3.insertedLoads             0                       # Number of loads inserted to the mem dependence unit. (Count)
system.cpu0.MemDepUnit__3.insertedStores            0                       # Number of stores inserted to the mem dependence unit. (Count)
system.cpu0.MemDepUnit__3.conflictingLoads            0                       # Number of conflicting loads. (Count)
system.cpu0.MemDepUnit__3.conflictingStores            0                       # Number of conflicting stores. (Count)
system.cpu0.branchPred.lookups_0::NoBranch         7409      0.01%      0.01% # Number of BP lookups (Count)
system.cpu0.branchPred.lookups_0::Return      5946298      5.36%      5.36% # Number of BP lookups (Count)
system.cpu0.branchPred.lookups_0::CallDirect      3636137      3.27%      8.64% # Number of BP lookups (Count)
system.cpu0.branchPred.lookups_0::CallIndirect      3041715      2.74%     11.38% # Number of BP lookups (Count)
system.cpu0.branchPred.lookups_0::DirectCond     87823129     79.10%     90.47% # Number of BP lookups (Count)
system.cpu0.branchPred.lookups_0::DirectUncond      2133030      1.92%     92.40% # Number of BP lookups (Count)
system.cpu0.branchPred.lookups_0::IndirectCond            0      0.00%     92.40% # Number of BP lookups (Count)
system.cpu0.branchPred.lookups_0::IndirectUncond      8443922      7.60%    100.00% # Number of BP lookups (Count)
system.cpu0.branchPred.lookups_0::total     111031640                       # Number of BP lookups (Count)
system.cpu0.branchPred.squashes_0::NoBranch         6729      0.04%      0.04% # Number of branches that got squashed (completely removed) as an earlier branch was mispredicted. (Count)
system.cpu0.branchPred.squashes_0::Return       631309      3.93%      3.98% # Number of branches that got squashed (completely removed) as an earlier branch was mispredicted. (Count)
system.cpu0.branchPred.squashes_0::CallDirect       789908      4.92%      8.90% # Number of branches that got squashed (completely removed) as an earlier branch was mispredicted. (Count)
system.cpu0.branchPred.squashes_0::CallIndirect       572950      3.57%     12.47% # Number of branches that got squashed (completely removed) as an earlier branch was mispredicted. (Count)
system.cpu0.branchPred.squashes_0::DirectCond     12374951     77.12%     89.59% # Number of branches that got squashed (completely removed) as an earlier branch was mispredicted. (Count)
system.cpu0.branchPred.squashes_0::DirectUncond       390346      2.43%     92.02% # Number of branches that got squashed (completely removed) as an earlier branch was mispredicted. (Count)
system.cpu0.branchPred.squashes_0::IndirectCond            0      0.00%     92.02% # Number of branches that got squashed (completely removed) as an earlier branch was mispredicted. (Count)
system.cpu0.branchPred.squashes_0::IndirectUncond      1280086      7.98%    100.00% # Number of branches that got squashed (completely removed) as an earlier branch was mispredicted. (Count)
system.cpu0.branchPred.squashes_0::total     16046279                       # Number of branches that got squashed (completely removed) as an earlier branch was mispredicted. (Count)
system.cpu0.branchPred.corrected_0::NoBranch         1581      0.05%      0.05% # Number of branches that got corrected but not yet commited. Branches get corrected by decode or after execute. Also a branch misprediction can be detected out-of-order. Therefore, a corrected branch might not end up beeing committed in case an even earlier branch was mispredicted (Count)
system.cpu0.branchPred.corrected_0::Return        36733      1.11%      1.15% # Number of branches that got corrected but not yet commited. Branches get corrected by decode or after execute. Also a branch misprediction can be detected out-of-order. Therefore, a corrected branch might not end up beeing committed in case an even earlier branch was mispredicted (Count)
system.cpu0.branchPred.corrected_0::CallDirect        70235      2.12%      3.27% # Number of branches that got corrected but not yet commited. Branches get corrected by decode or after execute. Also a branch misprediction can be detected out-of-order. Therefore, a corrected branch might not end up beeing committed in case an even earlier branch was mispredicted (Count)
system.cpu0.branchPred.corrected_0::CallIndirect       258914      7.80%     11.07% # Number of branches that got corrected but not yet commited. Branches get corrected by decode or after execute. Also a branch misprediction can be detected out-of-order. Therefore, a corrected branch might not end up beeing committed in case an even earlier branch was mispredicted (Count)
system.cpu0.branchPred.corrected_0::DirectCond      1328783     40.03%     51.10% # Number of branches that got corrected but not yet commited. Branches get corrected by decode or after execute. Also a branch misprediction can be detected out-of-order. Therefore, a corrected branch might not end up beeing committed in case an even earlier branch was mispredicted (Count)
system.cpu0.branchPred.corrected_0::DirectUncond        40382      1.22%     52.31% # Number of branches that got corrected but not yet commited. Branches get corrected by decode or after execute. Also a branch misprediction can be detected out-of-order. Therefore, a corrected branch might not end up beeing committed in case an even earlier branch was mispredicted (Count)
system.cpu0.branchPred.corrected_0::IndirectCond            0      0.00%     52.31% # Number of branches that got corrected but not yet commited. Branches get corrected by decode or after execute. Also a branch misprediction can be detected out-of-order. Therefore, a corrected branch might not end up beeing committed in case an even earlier branch was mispredicted (Count)
system.cpu0.branchPred.corrected_0::IndirectUncond      1582959     47.69%    100.00% # Number of branches that got corrected but not yet commited. Branches get corrected by decode or after execute. Also a branch misprediction can be detected out-of-order. Therefore, a corrected branch might not end up beeing committed in case an even earlier branch was mispredicted (Count)
system.cpu0.branchPred.corrected_0::total      3319587                       # Number of branches that got corrected but not yet commited. Branches get corrected by decode or after execute. Also a branch misprediction can be detected out-of-order. Therefore, a corrected branch might not end up beeing committed in case an even earlier branch was mispredicted (Count)
system.cpu0.branchPred.earlyResteers_0::NoBranch            0                       # Number of branches that got redirected after decode. (Count)
system.cpu0.branchPred.earlyResteers_0::Return            0                       # Number of branches that got redirected after decode. (Count)
system.cpu0.branchPred.earlyResteers_0::CallDirect            0                       # Number of branches that got redirected after decode. (Count)
system.cpu0.branchPred.earlyResteers_0::CallIndirect            0                       # Number of branches that got redirected after decode. (Count)
system.cpu0.branchPred.earlyResteers_0::DirectCond            0                       # Number of branches that got redirected after decode. (Count)
system.cpu0.branchPred.earlyResteers_0::DirectUncond            0                       # Number of branches that got redirected after decode. (Count)
system.cpu0.branchPred.earlyResteers_0::IndirectCond            0                       # Number of branches that got redirected after decode. (Count)
system.cpu0.branchPred.earlyResteers_0::IndirectUncond            0                       # Number of branches that got redirected after decode. (Count)
system.cpu0.branchPred.earlyResteers_0::total            0                       # Number of branches that got redirected after decode. (Count)
system.cpu0.branchPred.committed_0::NoBranch          680      0.00%      0.00% # Number of branches finally committed  (Count)
system.cpu0.branchPred.committed_0::Return      5314989      5.60%      5.60% # Number of branches finally committed  (Count)
system.cpu0.branchPred.committed_0::CallDirect      2846229      3.00%      8.59% # Number of branches finally committed  (Count)
system.cpu0.branchPred.committed_0::CallIndirect      2468765      2.60%     11.19% # Number of branches finally committed  (Count)
system.cpu0.branchPred.committed_0::DirectCond     75448175     79.43%     90.62% # Number of branches finally committed  (Count)
system.cpu0.branchPred.committed_0::DirectUncond      1742684      1.83%     92.46% # Number of branches finally committed  (Count)
system.cpu0.branchPred.committed_0::IndirectCond            0      0.00%     92.46% # Number of branches finally committed  (Count)
system.cpu0.branchPred.committed_0::IndirectUncond      7163836      7.54%    100.00% # Number of branches finally committed  (Count)
system.cpu0.branchPred.committed_0::total     94985358                       # Number of branches finally committed  (Count)
system.cpu0.branchPred.mispredicted_0::NoBranch          680      0.02%      0.02% # Number of committed branches that were mispredicted. (Count)
system.cpu0.branchPred.mispredicted_0::Return         4241      0.14%      0.16% # Number of committed branches that were mispredicted. (Count)
system.cpu0.branchPred.mispredicted_0::CallDirect        59227      1.91%      2.07% # Number of committed branches that were mispredicted. (Count)
system.cpu0.branchPred.mispredicted_0::CallIndirect       244344      7.88%      9.95% # Number of committed branches that were mispredicted. (Count)
system.cpu0.branchPred.mispredicted_0::DirectCond      1200826     38.74%     48.69% # Number of committed branches that were mispredicted. (Count)
system.cpu0.branchPred.mispredicted_0::DirectUncond        21760      0.70%     49.39% # Number of committed branches that were mispredicted. (Count)
system.cpu0.branchPred.mispredicted_0::IndirectCond            0      0.00%     49.39% # Number of committed branches that were mispredicted. (Count)
system.cpu0.branchPred.mispredicted_0::IndirectUncond      1568935     50.61%    100.00% # Number of committed branches that were mispredicted. (Count)
system.cpu0.branchPred.mispredicted_0::total      3100013                       # Number of committed branches that were mispredicted. (Count)
system.cpu0.branchPred.targetProvider_0::NoTarget     79414895     71.52%     71.52% # The component providing the target for taken branches (Count)
system.cpu0.branchPred.targetProvider_0::BTB     15332759     13.81%     85.33% # The component providing the target for taken branches (Count)
system.cpu0.branchPred.targetProvider_0::RAS      5946298      5.36%     90.69% # The component providing the target for taken branches (Count)
system.cpu0.branchPred.targetProvider_0::Indirect     10337688      9.31%    100.00% # The component providing the target for taken branches (Count)
system.cpu0.branchPred.targetProvider_0::total    111031640                       # The component providing the target for taken branches (Count)
system.cpu0.branchPred.targetWrong_0::NoBranch      1442585     43.55%     43.55% # Number of branches where the target was incorrect or not available at prediction time. (Count)
system.cpu0.branchPred.targetWrong_0::Return       432660     13.06%     56.62% # Number of branches where the target was incorrect or not available at prediction time. (Count)
system.cpu0.branchPred.targetWrong_0::CallDirect        36733      1.11%     57.73% # Number of branches where the target was incorrect or not available at prediction time. (Count)
system.cpu0.branchPred.targetWrong_0::CallIndirect      1400188     42.27%    100.00% # Number of branches where the target was incorrect or not available at prediction time. (Count)
system.cpu0.branchPred.targetWrong_0::DirectCond            0      0.00%    100.00% # Number of branches where the target was incorrect or not available at prediction time. (Count)
system.cpu0.branchPred.targetWrong_0::DirectUncond            0      0.00%    100.00% # Number of branches where the target was incorrect or not available at prediction time. (Count)
system.cpu0.branchPred.targetWrong_0::IndirectCond            0      0.00%    100.00% # Number of branches where the target was incorrect or not available at prediction time. (Count)
system.cpu0.branchPred.targetWrong_0::IndirectUncond            0      0.00%    100.00% # Number of branches where the target was incorrect or not available at prediction time. (Count)
system.cpu0.branchPred.targetWrong_0::total      3312166                       # Number of branches where the target was incorrect or not available at prediction time. (Count)
system.cpu0.branchPred.condPredicted         87830534                       # Number of conditional branches predicted (Count)
system.cpu0.branchPred.condPredictedTaken     10108755                       # Number of conditional branches predicted as taken (Count)
system.cpu0.branchPred.condIncorrect          3319587                       # Number of conditional branches incorrect (Count)
system.cpu0.branchPred.predTakenBTBMiss        207697                       # Number of branches predicted taken but missed in BTB (Count)
system.cpu0.branchPred.NotTakenMispredicted      2937519                       # Number branches predicted 'not taken' but turned out to be taken (Count)
system.cpu0.branchPred.TakenMispredicted       382068                       # Number branches predicted taken but are actually not taken (Count)
system.cpu0.branchPred.BTBLookups           111031640                       # Number of BTB lookups (Count)
system.cpu0.branchPred.BTBUpdates             1057332                       # Number of BTB updates (Count)
system.cpu0.branchPred.BTBHits               39025577                       # Number of BTB hits (Count)
system.cpu0.branchPred.BTBHitRatio           0.351482                       # BTB Hit Ratio (Ratio)
system.cpu0.branchPred.BTBMispredicted         258718                       # Number BTB mispredictions. No target found or target wrong (Count)
system.cpu0.branchPred.indirectLookups       11485632                       # Number of indirect predictor lookups. (Count)
system.cpu0.branchPred.indirectHits          10337688                       # Number of indirect target hits. (Count)
system.cpu0.branchPred.indirectMisses         1147944                       # Number of indirect misses. (Count)
system.cpu0.branchPred.indirectMispredicted            0                       # Number of mispredicted indirect branches. (Count)
system.cpu0.branchPred.btb.lookups::NoBranch         7409      0.01%      0.01% # Number of BTB lookups (Count)
system.cpu0.branchPred.btb.lookups::Return      5946298      5.36%      5.36% # Number of BTB lookups (Count)
system.cpu0.branchPred.btb.lookups::CallDirect      3636137      3.27%      8.64% # Number of BTB lookups (Count)
system.cpu0.branchPred.btb.lookups::CallIndirect      3041715      2.74%     11.38% # Number of BTB lookups (Count)
system.cpu0.branchPred.btb.lookups::DirectCond     87823129     79.10%     90.47% # Number of BTB lookups (Count)
system.cpu0.branchPred.btb.lookups::DirectUncond      2133030      1.92%     92.40% # Number of BTB lookups (Count)
system.cpu0.branchPred.btb.lookups::IndirectCond            0      0.00%     92.40% # Number of BTB lookups (Count)
system.cpu0.branchPred.btb.lookups::IndirectUncond      8443922      7.60%    100.00% # Number of BTB lookups (Count)
system.cpu0.branchPred.btb.lookups::total    111031640                       # Number of BTB lookups (Count)
system.cpu0.branchPred.btb.misses::NoBranch         1150      0.00%      0.00% # Number of BTB misses (Count)
system.cpu0.branchPred.btb.misses::Return      5944535      8.26%      8.26% # Number of BTB misses (Count)
system.cpu0.branchPred.btb.misses::CallDirect        80724      0.11%      8.37% # Number of BTB misses (Count)
system.cpu0.branchPred.btb.misses::CallIndirect      2878520      4.00%     12.37% # Number of BTB misses (Count)
system.cpu0.branchPred.btb.misses::DirectCond     54617481     75.85%     88.22% # Number of BTB misses (Count)
system.cpu0.branchPred.btb.misses::DirectUncond        39939      0.06%     88.27% # Number of BTB misses (Count)
system.cpu0.branchPred.btb.misses::IndirectCond            0      0.00%     88.27% # Number of BTB misses (Count)
system.cpu0.branchPred.btb.misses::IndirectUncond      8443714     11.73%    100.00% # Number of BTB misses (Count)
system.cpu0.branchPred.btb.misses::total     72006063                       # Number of BTB misses (Count)
system.cpu0.branchPred.btb.updates::NoBranch            0      0.00%      0.00% # Number of BTB updates (Count)
system.cpu0.branchPred.btb.updates::Return            0      0.00%      0.00% # Number of BTB updates (Count)
system.cpu0.branchPred.btb.updates::CallDirect        70235      6.64%      6.64% # Number of BTB updates (Count)
system.cpu0.branchPred.btb.updates::CallIndirect            0      0.00%      6.64% # Number of BTB updates (Count)
system.cpu0.branchPred.btb.updates::DirectCond       946715     89.54%     96.18% # Number of BTB updates (Count)
system.cpu0.branchPred.btb.updates::DirectUncond        40382      3.82%    100.00% # Number of BTB updates (Count)
system.cpu0.branchPred.btb.updates::IndirectCond            0      0.00%    100.00% # Number of BTB updates (Count)
system.cpu0.branchPred.btb.updates::IndirectUncond            0      0.00%    100.00% # Number of BTB updates (Count)
system.cpu0.branchPred.btb.updates::total      1057332                       # Number of BTB updates (Count)
system.cpu0.branchPred.btb.mispredict::NoBranch            0      0.00%      0.00% # Number of BTB mispredictions. No target found or target wrong. (Count)
system.cpu0.branchPred.btb.mispredict::Return            0      0.00%      0.00% # Number of BTB mispredictions. No target found or target wrong. (Count)
system.cpu0.branchPred.btb.mispredict::CallDirect        70235      6.64%      6.64% # Number of BTB mispredictions. No target found or target wrong. (Count)
system.cpu0.branchPred.btb.mispredict::CallIndirect            0      0.00%      6.64% # Number of BTB mispredictions. No target found or target wrong. (Count)
system.cpu0.branchPred.btb.mispredict::DirectCond       946715     89.54%     96.18% # Number of BTB mispredictions. No target found or target wrong. (Count)
system.cpu0.branchPred.btb.mispredict::DirectUncond        40382      3.82%    100.00% # Number of BTB mispredictions. No target found or target wrong. (Count)
system.cpu0.branchPred.btb.mispredict::IndirectCond            0      0.00%    100.00% # Number of BTB mispredictions. No target found or target wrong. (Count)
system.cpu0.branchPred.btb.mispredict::IndirectUncond            0      0.00%    100.00% # Number of BTB mispredictions. No target found or target wrong. (Count)
system.cpu0.branchPred.btb.mispredict::total      1057332                       # Number of BTB mispredictions. No target found or target wrong. (Count)
system.cpu0.branchPred.btb.power_state.pwrStateResidencyTicks::UNDEFINED 326444307250                       # Cumulative time (in ticks) in various power states (Tick)
system.cpu0.branchPred.indirectBranchPred.lookups     11485632                       # Number of lookups (Count)
system.cpu0.branchPred.indirectBranchPred.hits     10337688                       # Number of hits of a tag (Count)
system.cpu0.branchPred.indirectBranchPred.misses      1147944                       # Number of misses (Count)
system.cpu0.branchPred.indirectBranchPred.targetRecords      1841873                       # Number of targets that where recorded/installed in the cache (Count)
system.cpu0.branchPred.indirectBranchPred.indirectRecords     13327510                       # Number of indirect branches/calls recorded in the indirect hist (Count)
system.cpu0.branchPred.indirectBranchPred.speculativeOverflows            1                       # Number of times more than the allowed capacity for speculative branches/calls where in flight and destroy the path history (Count)
system.cpu0.branchPred.ras.pushes             7309161                       # Number of times a PC was pushed onto the RAS (Count)
system.cpu0.branchPred.ras.pops               7309156                       # Number of times a PC was poped from the RAS (Count)
system.cpu0.branchPred.ras.squashes           1994167                       # Number of times the stack operation was squashed due to wrong speculation. (Count)
system.cpu0.branchPred.ras.used               5314989                       # Number of times the RAS is the provider (Count)
system.cpu0.branchPred.ras.correct            5310748                       # Number of times the RAS is the provider and the prediction is correct (Count)
system.cpu0.branchPred.ras.incorrect             4241                       # Number of times the RAS is the provider and the prediction is wrong (Count)
system.cpu0.commit.commitSquashedInsts      109113554                       # The number of squashed insts skipped by commit (Count)
system.cpu0.commit.commitNonSpecStalls          30795                       # The number of times commit has been forced to stall to communicate backwards (Count)
system.cpu0.commit.branchMispredicts          3209406                       # The number of times a branch was mispredicted (Count)
system.cpu0.commit.numCommittedDist::samples    449403555                       # Number of insts commited each cycle (Count)
system.cpu0.commit.numCommittedDist::mean     2.015768                       # Number of insts commited each cycle (Count)
system.cpu0.commit.numCommittedDist::stdev     2.933538                       # Number of insts commited each cycle (Count)
system.cpu0.commit.numCommittedDist::underflows            0      0.00%      0.00% # Number of insts commited each cycle (Count)
system.cpu0.commit.numCommittedDist::0      246247575     54.79%     54.79% # Number of insts commited each cycle (Count)
system.cpu0.commit.numCommittedDist::1       46825333     10.42%     65.21% # Number of insts commited each cycle (Count)
system.cpu0.commit.numCommittedDist::2       20624028      4.59%     69.80% # Number of insts commited each cycle (Count)
system.cpu0.commit.numCommittedDist::3       34239239      7.62%     77.42% # Number of insts commited each cycle (Count)
system.cpu0.commit.numCommittedDist::4       11387833      2.53%     79.96% # Number of insts commited each cycle (Count)
system.cpu0.commit.numCommittedDist::5       10133072      2.25%     82.21% # Number of insts commited each cycle (Count)
system.cpu0.commit.numCommittedDist::6        7094178      1.58%     83.79% # Number of insts commited each cycle (Count)
system.cpu0.commit.numCommittedDist::7        6497752      1.45%     85.23% # Number of insts commited each cycle (Count)
system.cpu0.commit.numCommittedDist::8       66354545     14.77%    100.00% # Number of insts commited each cycle (Count)
system.cpu0.commit.numCommittedDist::overflows            0      0.00%    100.00% # Number of insts commited each cycle (Count)
system.cpu0.commit.numCommittedDist::min_value            0                       # Number of insts commited each cycle (Count)
system.cpu0.commit.numCommittedDist::max_value            8                       # Number of insts commited each cycle (Count)
system.cpu0.commit.numCommittedDist::total    449403555                       # Number of insts commited each cycle (Count)
system.cpu0.commit.amos                             0                       # Number of atomic instructions committed (Count)
system.cpu0.commit.membars                       9550                       # Number of memory barriers committed (Count)
system.cpu0.commit.functionCalls              5314994                       # Number of function calls committed. (Count)
system.cpu0.commit.committedInstType_0::No_OpClass     12605360      1.39%      1.39% # Class of committed instruction (Count)
system.cpu0.commit.committedInstType_0::IntAlu    662125505     73.09%     74.48% # Class of committed instruction (Count)
system.cpu0.commit.committedInstType_0::IntMult       275240      0.03%     74.51% # Class of committed instruction (Count)
system.cpu0.commit.committedInstType_0::IntDiv       394624      0.04%     74.56% # Class of committed instruction (Count)
system.cpu0.commit.committedInstType_0::FloatAdd      1605173      0.18%     74.73% # Class of committed instruction (Count)
system.cpu0.commit.committedInstType_0::FloatCmp            0      0.00%     74.73% # Class of committed instruction (Count)
system.cpu0.commit.committedInstType_0::FloatCvt           64      0.00%     74.73% # Class of committed instruction (Count)
system.cpu0.commit.committedInstType_0::FloatMult            0      0.00%     74.73% # Class of committed instruction (Count)
system.cpu0.commit.committedInstType_0::FloatMultAcc            0      0.00%     74.73% # Class of committed instruction (Count)
system.cpu0.commit.committedInstType_0::FloatDiv            0      0.00%     74.73% # Class of committed instruction (Count)
system.cpu0.commit.committedInstType_0::FloatMisc            0      0.00%     74.73% # Class of committed instruction (Count)
system.cpu0.commit.committedInstType_0::FloatSqrt            0      0.00%     74.73% # Class of committed instruction (Count)
system.cpu0.commit.committedInstType_0::SimdAdd        17966      0.00%     74.74% # Class of committed instruction (Count)
system.cpu0.commit.committedInstType_0::SimdAddAcc            0      0.00%     74.74% # Class of committed instruction (Count)
system.cpu0.commit.committedInstType_0::SimdAlu       867785      0.10%     74.83% # Class of committed instruction (Count)
system.cpu0.commit.committedInstType_0::SimdCmp         7752      0.00%     74.83% # Class of committed instruction (Count)
system.cpu0.commit.committedInstType_0::SimdCvt       109678      0.01%     74.84% # Class of committed instruction (Count)
system.cpu0.commit.committedInstType_0::SimdMisc      1051864      0.12%     74.96% # Class of committed instruction (Count)
system.cpu0.commit.committedInstType_0::SimdMult            0      0.00%     74.96% # Class of committed instruction (Count)
system.cpu0.commit.committedInstType_0::SimdMultAcc            0      0.00%     74.96% # Class of committed instruction (Count)
system.cpu0.commit.committedInstType_0::SimdMatMultAcc            0      0.00%     74.96% # Class of committed instruction (Count)
system.cpu0.commit.committedInstType_0::SimdShift         5603      0.00%     74.96% # Class of committed instruction (Count)
system.cpu0.commit.committedInstType_0::SimdShiftAcc            0      0.00%     74.96% # Class of committed instruction (Count)
system.cpu0.commit.committedInstType_0::SimdDiv            0      0.00%     74.96% # Class of committed instruction (Count)
system.cpu0.commit.committedInstType_0::SimdSqrt            0      0.00%     74.96% # Class of committed instruction (Count)
system.cpu0.commit.committedInstType_0::SimdFloatAdd       723987      0.08%     75.04% # Class of committed instruction (Count)
system.cpu0.commit.committedInstType_0::SimdFloatAlu            0      0.00%     75.04% # Class of committed instruction (Count)
system.cpu0.commit.committedInstType_0::SimdFloatCmp            1      0.00%     75.04% # Class of committed instruction (Count)
system.cpu0.commit.committedInstType_0::SimdFloatCvt       489322      0.05%     75.09% # Class of committed instruction (Count)
system.cpu0.commit.committedInstType_0::SimdFloatDiv         8201      0.00%     75.10% # Class of committed instruction (Count)
system.cpu0.commit.committedInstType_0::SimdFloatMisc            0      0.00%     75.10% # Class of committed instruction (Count)
system.cpu0.commit.committedInstType_0::SimdFloatMult       527214      0.06%     75.15% # Class of committed instruction (Count)
system.cpu0.commit.committedInstType_0::SimdFloatMultAcc            0      0.00%     75.15% # Class of committed instruction (Count)
system.cpu0.commit.committedInstType_0::SimdFloatMatMultAcc            0      0.00%     75.15% # Class of committed instruction (Count)
system.cpu0.commit.committedInstType_0::SimdFloatSqrt            1      0.00%     75.15% # Class of committed instruction (Count)
system.cpu0.commit.committedInstType_0::SimdReduceAdd            0      0.00%     75.15% # Class of committed instruction (Count)
system.cpu0.commit.committedInstType_0::SimdReduceAlu            0      0.00%     75.15% # Class of committed instruction (Count)
system.cpu0.commit.committedInstType_0::SimdReduceCmp            0      0.00%     75.15% # Class of committed instruction (Count)
system.cpu0.commit.committedInstType_0::SimdFloatReduceAdd            0      0.00%     75.15% # Class of committed instruction (Count)
system.cpu0.commit.committedInstType_0::SimdFloatReduceCmp            0      0.00%     75.15% # Class of committed instruction (Count)
system.cpu0.commit.committedInstType_0::SimdAes            0      0.00%     75.15% # Class of committed instruction (Count)
system.cpu0.commit.committedInstType_0::SimdAesMix            0      0.00%     75.15% # Class of committed instruction (Count)
system.cpu0.commit.committedInstType_0::SimdSha1Hash            0      0.00%     75.15% # Class of committed instruction (Count)
system.cpu0.commit.committedInstType_0::SimdSha1Hash2            0      0.00%     75.15% # Class of committed instruction (Count)
system.cpu0.commit.committedInstType_0::SimdSha256Hash            0      0.00%     75.15% # Class of committed instruction (Count)
system.cpu0.commit.committedInstType_0::SimdSha256Hash2            0      0.00%     75.15% # Class of committed instruction (Count)
system.cpu0.commit.committedInstType_0::SimdShaSigma2            0      0.00%     75.15% # Class of committed instruction (Count)
system.cpu0.commit.committedInstType_0::SimdShaSigma3            0      0.00%     75.15% # Class of committed instruction (Count)
system.cpu0.commit.committedInstType_0::SimdPredAlu            0      0.00%     75.15% # Class of committed instruction (Count)
system.cpu0.commit.committedInstType_0::Matrix            0      0.00%     75.15% # Class of committed instruction (Count)
system.cpu0.commit.committedInstType_0::MatrixMov            0      0.00%     75.15% # Class of committed instruction (Count)
system.cpu0.commit.committedInstType_0::MatrixOP            0      0.00%     75.15% # Class of committed instruction (Count)
system.cpu0.commit.committedInstType_0::MemRead    149279559     16.48%     91.63% # Class of committed instruction (Count)
system.cpu0.commit.committedInstType_0::MemWrite     71631977      7.91%     99.54% # Class of committed instruction (Count)
system.cpu0.commit.committedInstType_0::FloatMemRead      2169771      0.24%     99.78% # Class of committed instruction (Count)
system.cpu0.commit.committedInstType_0::FloatMemWrite      1996843      0.22%    100.00% # Class of committed instruction (Count)
system.cpu0.commit.committedInstType_0::IprAccess            0      0.00%    100.00% # Class of committed instruction (Count)
system.cpu0.commit.committedInstType_0::InstPrefetch            0      0.00%    100.00% # Class of committed instruction (Count)
system.cpu0.commit.committedInstType_0::VectorUnitStrideLoad            0      0.00%    100.00% # Class of committed instruction (Count)
system.cpu0.commit.committedInstType_0::VectorUnitStrideStore            0      0.00%    100.00% # Class of committed instruction (Count)
system.cpu0.commit.committedInstType_0::VectorUnitStrideMaskLoad            0      0.00%    100.00% # Class of committed instruction (Count)
system.cpu0.commit.committedInstType_0::VectorUnitStrideMaskStore            0      0.00%    100.00% # Class of committed instruction (Count)
system.cpu0.commit.committedInstType_0::VectorStridedLoad            0      0.00%    100.00% # Class of committed instruction (Count)
system.cpu0.commit.committedInstType_0::VectorStridedStore            0      0.00%    100.00% # Class of committed instruction (Count)
system.cpu0.commit.committedInstType_0::VectorIndexedLoad            0      0.00%    100.00% # Class of committed instruction (Count)
system.cpu0.commit.committedInstType_0::VectorIndexedStore            0      0.00%    100.00% # Class of committed instruction (Count)
system.cpu0.commit.committedInstType_0::VectorUnitStrideFaultOnlyFirstLoad            0      0.00%    100.00% # Class of committed instruction (Count)
system.cpu0.commit.committedInstType_0::VectorWholeRegisterLoad            0      0.00%    100.00% # Class of committed instruction (Count)
system.cpu0.commit.committedInstType_0::VectorWholeRegisterStore            0      0.00%    100.00% # Class of committed instruction (Count)
system.cpu0.commit.committedInstType_0::VectorIntegerArith            0      0.00%    100.00% # Class of committed instruction (Count)
system.cpu0.commit.committedInstType_0::VectorFloatArith            0      0.00%    100.00% # Class of committed instruction (Count)
system.cpu0.commit.committedInstType_0::VectorFloatConvert            0      0.00%    100.00% # Class of committed instruction (Count)
system.cpu0.commit.committedInstType_0::VectorIntegerReduce            0      0.00%    100.00% # Class of committed instruction (Count)
system.cpu0.commit.committedInstType_0::VectorFloatReduce            0      0.00%    100.00% # Class of committed instruction (Count)
system.cpu0.commit.committedInstType_0::VectorMisc            0      0.00%    100.00% # Class of committed instruction (Count)
system.cpu0.commit.committedInstType_0::VectorIntegerExtension            0      0.00%    100.00% # Class of committed instruction (Count)
system.cpu0.commit.committedInstType_0::VectorConfig            0      0.00%    100.00% # Class of committed instruction (Count)
system.cpu0.commit.committedInstType_0::total    905893490                       # Class of committed instruction (Count)
system.cpu0.commit.commitEligibleSamples     66354545                       # number cycles where commit BW limit reached (Cycle)
system.cpu0.commitStats0.numInsts           509027043                       # Number of instructions committed (thread level) (Count)
system.cpu0.commitStats0.numOps             905893490                       # Number of ops (including micro ops) committed (thread level) (Count)
system.cpu0.commitStats0.numInstsNotNOP     509027043                       # Number of instructions committed excluding NOPs or prefetches (Count)
system.cpu0.commitStats0.numOpsNotNOP       905893490                       # Number of Ops (including micro ops) Simulated (Count)
system.cpu0.commitStats0.cpi                 0.961485                       # CPI: cycles per instruction (thread level) ((Cycle/Count))
system.cpu0.commitStats0.ipc                 1.040058                       # IPC: instructions per cycle (thread level) ((Count/Cycle))
system.cpu0.commitStats0.numMemRefs         225078150                       # Number of memory references committed (Count)
system.cpu0.commitStats0.numFpInsts          10232107                       # Number of float instructions (Count)
system.cpu0.commitStats0.numIntInsts        887711540                       # Number of integer instructions (Count)
system.cpu0.commitStats0.numLoadInsts       151449330                       # Number of load instructions (Count)
system.cpu0.commitStats0.numStoreInsts       73628820                       # Number of store instructions (Count)
system.cpu0.commitStats0.numVecInsts                0                       # Number of vector instructions (Count)
system.cpu0.commitStats0.committedInstType::No_OpClass     12605360      1.39%      1.39% # Class of committed instruction. (Count)
system.cpu0.commitStats0.committedInstType::IntAlu    662125505     73.09%     74.48% # Class of committed instruction. (Count)
system.cpu0.commitStats0.committedInstType::IntMult       275240      0.03%     74.51% # Class of committed instruction. (Count)
system.cpu0.commitStats0.committedInstType::IntDiv       394624      0.04%     74.56% # Class of committed instruction. (Count)
system.cpu0.commitStats0.committedInstType::FloatAdd      1605173      0.18%     74.73% # Class of committed instruction. (Count)
system.cpu0.commitStats0.committedInstType::FloatCmp            0      0.00%     74.73% # Class of committed instruction. (Count)
system.cpu0.commitStats0.committedInstType::FloatCvt           64      0.00%     74.73% # Class of committed instruction. (Count)
system.cpu0.commitStats0.committedInstType::FloatMult            0      0.00%     74.73% # Class of committed instruction. (Count)
system.cpu0.commitStats0.committedInstType::FloatMultAcc            0      0.00%     74.73% # Class of committed instruction. (Count)
system.cpu0.commitStats0.committedInstType::FloatDiv            0      0.00%     74.73% # Class of committed instruction. (Count)
system.cpu0.commitStats0.committedInstType::FloatMisc            0      0.00%     74.73% # Class of committed instruction. (Count)
system.cpu0.commitStats0.committedInstType::FloatSqrt            0      0.00%     74.73% # Class of committed instruction. (Count)
system.cpu0.commitStats0.committedInstType::SimdAdd        17966      0.00%     74.74% # Class of committed instruction. (Count)
system.cpu0.commitStats0.committedInstType::SimdAddAcc            0      0.00%     74.74% # Class of committed instruction. (Count)
system.cpu0.commitStats0.committedInstType::SimdAlu       867785      0.10%     74.83% # Class of committed instruction. (Count)
system.cpu0.commitStats0.committedInstType::SimdCmp         7752      0.00%     74.83% # Class of committed instruction. (Count)
system.cpu0.commitStats0.committedInstType::SimdCvt       109678      0.01%     74.84% # Class of committed instruction. (Count)
system.cpu0.commitStats0.committedInstType::SimdMisc      1051864      0.12%     74.96% # Class of committed instruction. (Count)
system.cpu0.commitStats0.committedInstType::SimdMult            0      0.00%     74.96% # Class of committed instruction. (Count)
system.cpu0.commitStats0.committedInstType::SimdMultAcc            0      0.00%     74.96% # Class of committed instruction. (Count)
system.cpu0.commitStats0.committedInstType::SimdMatMultAcc            0      0.00%     74.96% # Class of committed instruction. (Count)
system.cpu0.commitStats0.committedInstType::SimdShift         5603      0.00%     74.96% # Class of committed instruction. (Count)
system.cpu0.commitStats0.committedInstType::SimdShiftAcc            0      0.00%     74.96% # Class of committed instruction. (Count)
system.cpu0.commitStats0.committedInstType::SimdDiv            0      0.00%     74.96% # Class of committed instruction. (Count)
system.cpu0.commitStats0.committedInstType::SimdSqrt            0      0.00%     74.96% # Class of committed instruction. (Count)
system.cpu0.commitStats0.committedInstType::SimdFloatAdd       723987      0.08%     75.04% # Class of committed instruction. (Count)
system.cpu0.commitStats0.committedInstType::SimdFloatAlu            0      0.00%     75.04% # Class of committed instruction. (Count)
system.cpu0.commitStats0.committedInstType::SimdFloatCmp            1      0.00%     75.04% # Class of committed instruction. (Count)
system.cpu0.commitStats0.committedInstType::SimdFloatCvt       489322      0.05%     75.09% # Class of committed instruction. (Count)
system.cpu0.commitStats0.committedInstType::SimdFloatDiv         8201      0.00%     75.10% # Class of committed instruction. (Count)
system.cpu0.commitStats0.committedInstType::SimdFloatMisc            0      0.00%     75.10% # Class of committed instruction. (Count)
system.cpu0.commitStats0.committedInstType::SimdFloatMult       527214      0.06%     75.15% # Class of committed instruction. (Count)
system.cpu0.commitStats0.committedInstType::SimdFloatMultAcc            0      0.00%     75.15% # Class of committed instruction. (Count)
system.cpu0.commitStats0.committedInstType::SimdFloatMatMultAcc            0      0.00%     75.15% # Class of committed instruction. (Count)
system.cpu0.commitStats0.committedInstType::SimdFloatSqrt            1      0.00%     75.15% # Class of committed instruction. (Count)
system.cpu0.commitStats0.committedInstType::SimdReduceAdd            0      0.00%     75.15% # Class of committed instruction. (Count)
system.cpu0.commitStats0.committedInstType::SimdReduceAlu            0      0.00%     75.15% # Class of committed instruction. (Count)
system.cpu0.commitStats0.committedInstType::SimdReduceCmp            0      0.00%     75.15% # Class of committed instruction. (Count)
system.cpu0.commitStats0.committedInstType::SimdFloatReduceAdd            0      0.00%     75.15% # Class of committed instruction. (Count)
system.cpu0.commitStats0.committedInstType::SimdFloatReduceCmp            0      0.00%     75.15% # Class of committed instruction. (Count)
system.cpu0.commitStats0.committedInstType::SimdAes            0      0.00%     75.15% # Class of committed instruction. (Count)
system.cpu0.commitStats0.committedInstType::SimdAesMix            0      0.00%     75.15% # Class of committed instruction. (Count)
system.cpu0.commitStats0.committedInstType::SimdSha1Hash            0      0.00%     75.15% # Class of committed instruction. (Count)
system.cpu0.commitStats0.committedInstType::SimdSha1Hash2            0      0.00%     75.15% # Class of committed instruction. (Count)
system.cpu0.commitStats0.committedInstType::SimdSha256Hash            0      0.00%     75.15% # Class of committed instruction. (Count)
system.cpu0.commitStats0.committedInstType::SimdSha256Hash2            0      0.00%     75.15% # Class of committed instruction. (Count)
system.cpu0.commitStats0.committedInstType::SimdShaSigma2            0      0.00%     75.15% # Class of committed instruction. (Count)
system.cpu0.commitStats0.committedInstType::SimdShaSigma3            0      0.00%     75.15% # Class of committed instruction. (Count)
system.cpu0.commitStats0.committedInstType::SimdPredAlu            0      0.00%     75.15% # Class of committed instruction. (Count)
system.cpu0.commitStats0.committedInstType::Matrix            0      0.00%     75.15% # Class of committed instruction. (Count)
system.cpu0.commitStats0.committedInstType::MatrixMov            0      0.00%     75.15% # Class of committed instruction. (Count)
system.cpu0.commitStats0.committedInstType::MatrixOP            0      0.00%     75.15% # Class of committed instruction. (Count)
system.cpu0.commitStats0.committedInstType::MemRead    149279559     16.48%     91.63% # Class of committed instruction. (Count)
system.cpu0.commitStats0.committedInstType::MemWrite     71631977      7.91%     99.54% # Class of committed instruction. (Count)
system.cpu0.commitStats0.committedInstType::FloatMemRead      2169771      0.24%     99.78% # Class of committed instruction. (Count)
system.cpu0.commitStats0.committedInstType::FloatMemWrite      1996843      0.22%    100.00% # Class of committed instruction. (Count)
system.cpu0.commitStats0.committedInstType::IprAccess            0      0.00%    100.00% # Class of committed instruction. (Count)
system.cpu0.commitStats0.committedInstType::InstPrefetch            0      0.00%    100.00% # Class of committed instruction. (Count)
system.cpu0.commitStats0.committedInstType::VectorUnitStrideLoad            0      0.00%    100.00% # Class of committed instruction. (Count)
system.cpu0.commitStats0.committedInstType::VectorUnitStrideStore            0      0.00%    100.00% # Class of committed instruction. (Count)
system.cpu0.commitStats0.committedInstType::VectorUnitStrideMaskLoad            0      0.00%    100.00% # Class of committed instruction. (Count)
system.cpu0.commitStats0.committedInstType::VectorUnitStrideMaskStore            0      0.00%    100.00% # Class of committed instruction. (Count)
system.cpu0.commitStats0.committedInstType::VectorStridedLoad            0      0.00%    100.00% # Class of committed instruction. (Count)
system.cpu0.commitStats0.committedInstType::VectorStridedStore            0      0.00%    100.00% # Class of committed instruction. (Count)
system.cpu0.commitStats0.committedInstType::VectorIndexedLoad            0      0.00%    100.00% # Class of committed instruction. (Count)
system.cpu0.commitStats0.committedInstType::VectorIndexedStore            0      0.00%    100.00% # Class of committed instruction. (Count)
system.cpu0.commitStats0.committedInstType::VectorUnitStrideFaultOnlyFirstLoad            0      0.00%    100.00% # Class of committed instruction. (Count)
system.cpu0.commitStats0.committedInstType::VectorWholeRegisterLoad            0      0.00%    100.00% # Class of committed instruction. (Count)
system.cpu0.commitStats0.committedInstType::VectorWholeRegisterStore            0      0.00%    100.00% # Class of committed instruction. (Count)
system.cpu0.commitStats0.committedInstType::VectorIntegerArith            0      0.00%    100.00% # Class of committed instruction. (Count)
system.cpu0.commitStats0.committedInstType::VectorFloatArith            0      0.00%    100.00% # Class of committed instruction. (Count)
system.cpu0.commitStats0.committedInstType::VectorFloatConvert            0      0.00%    100.00% # Class of committed instruction. (Count)
system.cpu0.commitStats0.committedInstType::VectorIntegerReduce            0      0.00%    100.00% # Class of committed instruction. (Count)
system.cpu0.commitStats0.committedInstType::VectorFloatReduce            0      0.00%    100.00% # Class of committed instruction. (Count)
system.cpu0.commitStats0.committedInstType::VectorMisc            0      0.00%    100.00% # Class of committed instruction. (Count)
system.cpu0.commitStats0.committedInstType::VectorIntegerExtension            0      0.00%    100.00% # Class of committed instruction. (Count)
system.cpu0.commitStats0.committedInstType::VectorConfig            0      0.00%    100.00% # Class of committed instruction. (Count)
system.cpu0.commitStats0.committedInstType::total    905893490                       # Class of committed instruction. (Count)
system.cpu0.commitStats0.committedControl::IsControl     94985358                       # Class of control type instructions committed (Count)
system.cpu0.commitStats0.committedControl::IsDirectControl     80037088                       # Class of control type instructions committed (Count)
system.cpu0.commitStats0.committedControl::IsIndirectControl     14947590                       # Class of control type instructions committed (Count)
system.cpu0.commitStats0.committedControl::IsCondControl     75448175                       # Class of control type instructions committed (Count)
system.cpu0.commitStats0.committedControl::IsUncondControl     19536503                       # Class of control type instructions committed (Count)
system.cpu0.commitStats0.committedControl::IsCall      5314994                       # Class of control type instructions committed (Count)
system.cpu0.commitStats0.committedControl::IsReturn      5314989                       # Class of control type instructions committed (Count)
system.cpu0.dcache.demandHits::cpu0.data    215349599                       # number of demand (read+write) hits (Count)
system.cpu0.dcache.demandHits::total        215349599                       # number of demand (read+write) hits (Count)
system.cpu0.dcache.overallHits::cpu0.data    215349979                       # number of overall hits (Count)
system.cpu0.dcache.overallHits::total       215349979                       # number of overall hits (Count)
system.cpu0.dcache.demandMisses::cpu0.data      3441725                       # number of demand (read+write) misses (Count)
system.cpu0.dcache.demandMisses::total        3441725                       # number of demand (read+write) misses (Count)
system.cpu0.dcache.overallMisses::cpu0.data      3444501                       # number of overall misses (Count)
system.cpu0.dcache.overallMisses::total       3444501                       # number of overall misses (Count)
system.cpu0.dcache.demandMissLatency::cpu0.data 151032719846                       # number of demand (read+write) miss ticks (Tick)
system.cpu0.dcache.demandMissLatency::total 151032719846                       # number of demand (read+write) miss ticks (Tick)
system.cpu0.dcache.overallMissLatency::cpu0.data 151032719846                       # number of overall miss ticks (Tick)
system.cpu0.dcache.overallMissLatency::total 151032719846                       # number of overall miss ticks (Tick)
system.cpu0.dcache.demandAccesses::cpu0.data    218791324                       # number of demand (read+write) accesses (Count)
system.cpu0.dcache.demandAccesses::total    218791324                       # number of demand (read+write) accesses (Count)
system.cpu0.dcache.overallAccesses::cpu0.data    218794480                       # number of overall (read+write) accesses (Count)
system.cpu0.dcache.overallAccesses::total    218794480                       # number of overall (read+write) accesses (Count)
system.cpu0.dcache.demandMissRate::cpu0.data     0.015731                       # miss rate for demand accesses (Ratio)
[...]
system.mem_ctrl.dram.numReads::cpu0.inst       208619                       # Number of read requests responded to by this memory (Count)
system.mem_ctrl.dram.numReads::cpu0.data       778047                       # Number of read requests responded to by this memory (Count)
system.mem_ctrl.dram.numReads::total           986666                       # Number of read requests responded to by this memory (Count)
system.mem_ctrl.dram.numWrites::writebacks       360842                       # Number of write requests responded to by this memory (Count)
system.mem_ctrl.dram.numWrites::total          360842                       # Number of write requests responded to by this memory (Count)
system.mem_ctrl.dram.bwRead::cpu0.inst       40900134                       # Total read bandwidth from this memory ((Byte/Second))
system.mem_ctrl.dram.bwRead::cpu0.data      152537529                       # Total read bandwidth from this memory ((Byte/Second))
system.mem_ctrl.dram.bwRead::total          193437663                       # Total read bandwidth from this memory ((Byte/Second))
system.mem_ctrl.dram.bwInstRead::cpu0.inst     40900134                       # Instruction read bandwidth from this memory ((Byte/Second))
system.mem_ctrl.dram.bwInstRead::total       40900134                       # Instruction read bandwidth from this memory ((Byte/Second))
system.mem_ctrl.dram.bwWrite::writebacks     70743730                       # Write bandwidth from this memory ((Byte/Second))
system.mem_ctrl.dram.bwWrite::total          70743730                       # Write bandwidth from this memory ((Byte/Second))
system.mem_ctrl.dram.bwTotal::writebacks     70743730                       # Total bandwidth to/from this memory ((Byte/Second))
system.mem_ctrl.dram.bwTotal::cpu0.inst      40900134                       # Total bandwidth to/from this memory ((Byte/Second))
system.mem_ctrl.dram.bwTotal::cpu0.data     152537529                       # Total bandwidth to/from this memory ((Byte/Second))
system.mem_ctrl.dram.bwTotal::total         264181394                       # Total bandwidth to/from this memory ((Byte/Second))
system.mem_ctrl.dram.readBursts                983442                       # Number of DRAM read bursts (Count)
system.mem_ctrl.dram.writeBursts               360800                       # Number of DRAM write bursts (Count)
system.mem_ctrl.dram.perBankRdBursts::0         71894                       # Per bank write bursts (Count)
system.mem_ctrl.dram.perBankRdBursts::1         67417                       # Per bank write bursts (Count)
system.mem_ctrl.dram.perBankRdBursts::2         57040                       # Per bank write bursts (Count)
system.mem_ctrl.dram.perBankRdBursts::3         57712                       # Per bank write bursts (Count)
system.mem_ctrl.dram.perBankRdBursts::4         69706                       # Per bank write bursts (Count)
system.mem_ctrl.dram.perBankRdBursts::5         52702                       # Per bank write bursts (Count)
system.mem_ctrl.dram.perBankRdBursts::6         57813                       # Per bank write bursts (Count)
system.mem_ctrl.dram.perBankRdBursts::7         67899                       # Per bank write bursts (Count)
system.mem_ctrl.dram.perBankRdBursts::8         68950                       # Per bank write bursts (Count)
system.mem_ctrl.dram.perBankRdBursts::9         51364                       # Per bank write bursts (Count)
system.mem_ctrl.dram.perBankRdBursts::10        62188                       # Per bank write bursts (Count)
system.mem_ctrl.dram.perBankRdBursts::11        55143                       # Per bank write bursts (Count)
system.mem_ctrl.dram.perBankRdBursts::12        66823                       # Per bank write bursts (Count)
system.mem_ctrl.dram.perBankRdBursts::13        54113                       # Per bank write bursts (Count)
system.mem_ctrl.dram.perBankRdBursts::14        61045                       # Per bank write bursts (Count)
system.mem_ctrl.dram.perBankRdBursts::15        61633                       # Per bank write bursts (Count)
system.mem_ctrl.dram.perBankWrBursts::0         24340                       # Per bank write bursts (Count)
system.mem_ctrl.dram.perBankWrBursts::1         24148                       # Per bank write bursts (Count)
system.mem_ctrl.dram.perBankWrBursts::2         21711                       # Per bank write bursts (Count)
system.mem_ctrl.dram.perBankWrBursts::3         24196                       # Per bank write bursts (Count)
system.mem_ctrl.dram.perBankWrBursts::4         24345                       # Per bank write bursts (Count)
system.mem_ctrl.dram.perBankWrBursts::5         22490                       # Per bank write bursts (Count)
system.mem_ctrl.dram.perBankWrBursts::6         20367                       # Per bank write bursts (Count)
system.mem_ctrl.dram.perBankWrBursts::7         25024                       # Per bank write bursts (Count)
system.mem_ctrl.dram.perBankWrBursts::8         24067                       # Per bank write bursts (Count)
system.mem_ctrl.dram.perBankWrBursts::9         20379                       # Per bank write bursts (Count)
system.mem_ctrl.dram.perBankWrBursts::10        22955                       # Per bank write bursts (Count)
system.mem_ctrl.dram.perBankWrBursts::11        20919                       # Per bank write bursts (Count)
system.mem_ctrl.dram.perBankWrBursts::12        22733                       # Per bank write bursts (Count)
system.mem_ctrl.dram.perBankWrBursts::13        21009                       # Per bank write bursts (Count)
system.mem_ctrl.dram.perBankWrBursts::14        21705                       # Per bank write bursts (Count)
system.mem_ctrl.dram.perBankWrBursts::15        20412                       # Per bank write bursts (Count)
system.mem_ctrl.dram.totQLat              14748245950                       # Total ticks spent queuing (Tick)
system.mem_ctrl.dram.totBusLat             4917210000                       # Total ticks spent in databus transfers (Tick)
system.mem_ctrl.dram.totMemAccLat         33187783450                       # Total ticks spent from burst creation until serviced by the DRAM (Tick)
system.mem_ctrl.dram.avgQLat                 14996.56                       # Average queueing delay per DRAM burst ((Tick/Count))
system.mem_ctrl.dram.avgBusLat                5000.00                       # Average bus latency per DRAM burst ((Tick/Count))
system.mem_ctrl.dram.avgMemAccLat            33746.56                       # Average memory access latency per DRAM burst ((Tick/Count))
system.mem_ctrl.dram.readRowHits               639051                       # Number of row buffer hits during reads (Count)
system.mem_ctrl.dram.writeRowHits              198385                       # Number of row buffer hits during writes (Count)
system.mem_ctrl.dram.readRowHitRate             64.98                       # Row buffer hit rate for reads (Ratio)
system.mem_ctrl.dram.writeRowHitRate            54.98                       # Row buffer hit rate for writes (Ratio)
system.mem_ctrl.dram.bytesPerActivate::samples       506796                       # Bytes accessed per row activation (Byte)
system.mem_ctrl.dram.bytesPerActivate::mean   169.753005                       # Bytes accessed per row activation (Byte)
system.mem_ctrl.dram.bytesPerActivate::gmean   117.134521                       # Bytes accessed per row activation (Byte)
system.mem_ctrl.dram.bytesPerActivate::stdev   196.060502                       # Bytes accessed per row activation (Byte)
system.mem_ctrl.dram.bytesPerActivate::0-127       263642     52.02%     52.02% # Bytes accessed per row activation (Byte)
system.mem_ctrl.dram.bytesPerActivate::128-255       144321     28.48%     80.50% # Bytes accessed per row activation (Byte)
system.mem_ctrl.dram.bytesPerActivate::256-383        45194      8.92%     89.42% # Bytes accessed per row activation (Byte)
system.mem_ctrl.dram.bytesPerActivate::384-511        18867      3.72%     93.14% # Bytes accessed per row activation (Byte)
system.mem_ctrl.dram.bytesPerActivate::512-639        10099      1.99%     95.13% # Bytes accessed per row activation (Byte)
system.mem_ctrl.dram.bytesPerActivate::640-767         6078      1.20%     96.33% # Bytes accessed per row activation (Byte)
system.mem_ctrl.dram.bytesPerActivate::768-895         4040      0.80%     97.13% # Bytes accessed per row activation (Byte)
system.mem_ctrl.dram.bytesPerActivate::896-1023         2872      0.57%     97.69% # Bytes accessed per row activation (Byte)
system.mem_ctrl.dram.bytesPerActivate::1024-1151        11683      2.31%    100.00% # Bytes accessed per row activation (Byte)
system.mem_ctrl.dram.bytesPerActivate::total       506796                       # Bytes accessed per row activation (Byte)
system.mem_ctrl.dram.dramBytesRead           62940288                       # Total bytes read (Byte)
system.mem_ctrl.dram.dramBytesWritten        23091200                       # Total bytes written (Byte)
system.mem_ctrl.dram.avgRdBW               192.805592                       # Average DRAM read bandwidth in MiBytes/s ((Byte/Second))
system.mem_ctrl.dram.avgWrBW                70.735496                       # Average DRAM write bandwidth in MiBytes/s ((Byte/Second))
system.mem_ctrl.dram.peakBW                  12800.00                       # Theoretical peak bandwidth in MiByte/s ((Byte/Second))
system.mem_ctrl.dram.busUtil                     2.06                       # Data bus utilization in percentage (Ratio)
system.mem_ctrl.dram.busUtilRead                 1.51                       # Data bus utilization in percentage for reads (Ratio)
system.mem_ctrl.dram.busUtilWrite                0.55                       # Data bus utilization in percentage for writes (Ratio)
system.mem_ctrl.dram.pageHitRate                62.30                       # Row buffer hit rate, read and write combined (Ratio)
system.mem_ctrl.dram.power_state.pwrStateResidencyTicks::UNDEFINED 326444307250                       # Cumulative time (in ticks) in various power states (Tick)
system.mem_ctrl.dram.rank0.actEnergy       1883731920                       # Energy for activate commands per rank (pJ) (Joule)
system.mem_ctrl.dram.rank0.preEnergy       1001208285                       # Energy for precharge commands per rank (pJ) (Joule)
system.mem_ctrl.dram.rank0.readEnergy      3585586620                       # Energy for read commands per rank (pJ) (Joule)
system.mem_ctrl.dram.rank0.writeEnergy      974161620                       # Energy for write commands per rank (pJ) (Joule)
system.mem_ctrl.dram.rank0.refreshEnergy 25768782000.000004                       # Energy for refresh commands per rank (pJ) (Joule)
system.mem_ctrl.dram.rank0.actBackEnergy  70637077290                       # Energy for active background per rank (pJ) (Joule)
system.mem_ctrl.dram.rank0.preBackEnergy  65870759520                       # Energy for precharge background per rank (pJ) (Joule)
system.mem_ctrl.dram.rank0.actPowerDownEnergy            0                       # Energy for active power-down per rank (pJ) (Joule)
system.mem_ctrl.dram.rank0.prePowerDownEnergy            0                       # Energy for precharge power-down per rank (pJ) (Joule)
system.mem_ctrl.dram.rank0.selfRefreshEnergy            0                       # Energy for self refresh per rank (pJ) (Joule)
system.mem_ctrl.dram.rank0.totalEnergy   169721307255                       # Total energy per rank (pJ) (Joule)
system.mem_ctrl.dram.rank0.averagePower    519.908920                       # Core power per rank (mW) (Watt)
system.mem_ctrl.dram.rank0.totalIdleTime            0                       # Total Idle time Per DRAM Rank (Tick)
system.mem_ctrl.dram.rank0.pwrStateTime::IDLE 170578998229                       # Time in different power states (Tick)
system.mem_ctrl.dram.rank0.pwrStateTime::REF  10900500000                       # Time in different power states (Tick)
system.mem_ctrl.dram.rank0.pwrStateTime::SREF            0                       # Time in different power states (Tick)
system.mem_ctrl.dram.rank0.pwrStateTime::PRE_PDN            0                       # Time in different power states (Tick)
system.mem_ctrl.dram.rank0.pwrStateTime::ACT 144964809021                       # Time in different power states (Tick)
system.mem_ctrl.dram.rank0.pwrStateTime::ACT_PDN            0                       # Time in different power states (Tick)
system.mem_ctrl.dram.rank1.actEnergy       1734862920                       # Energy for activate commands per rank (pJ) (Joule)
system.mem_ctrl.dram.rank1.preEnergy        922082535                       # Energy for precharge commands per rank (pJ) (Joule)
system.mem_ctrl.dram.rank1.readEnergy      3436189260                       # Energy for read commands per rank (pJ) (Joule)
system.mem_ctrl.dram.rank1.writeEnergy      909214380                       # Energy for write commands per rank (pJ) (Joule)
system.mem_ctrl.dram.rank1.refreshEnergy 25768782000.000004                       # Energy for refresh commands per rank (pJ) (Joule)
system.mem_ctrl.dram.rank1.actBackEnergy  67811471580                       # Energy for active background per rank (pJ) (Joule)
system.mem_ctrl.dram.rank1.preBackEnergy  68250216960                       # Energy for precharge background per rank (pJ) (Joule)
system.mem_ctrl.dram.rank1.actPowerDownEnergy            0                       # Energy for active power-down per rank (pJ) (Joule)
system.mem_ctrl.dram.rank1.prePowerDownEnergy            0                       # Energy for precharge power-down per rank (pJ) (Joule)
system.mem_ctrl.dram.rank1.selfRefreshEnergy            0                       # Energy for self refresh per rank (pJ) (Joule)
system.mem_ctrl.dram.rank1.totalEnergy   168832819635                       # Total energy per rank (pJ) (Joule)
system.mem_ctrl.dram.rank1.averagePower    517.187207                       # Core power per rank (mW) (Watt)
system.mem_ctrl.dram.rank1.totalIdleTime            0                       # Total Idle time Per DRAM Rank (Tick)
system.mem_ctrl.dram.rank1.pwrStateTime::IDLE 176790633786                       # Time in different power states (Tick)
system.mem_ctrl.dram.rank1.pwrStateTime::REF  10900500000                       # Time in different power states (Tick)
system.mem_ctrl.dram.rank1.pwrStateTime::SREF            0                       # Time in different power states (Tick)
system.mem_ctrl.dram.rank1.pwrStateTime::PRE_PDN            0                       # Time in different power states (Tick)
system.mem_ctrl.dram.rank1.pwrStateTime::ACT 138753173464                       # Time in different power states (Tick)
system.mem_ctrl.dram.rank1.pwrStateTime::ACT_PDN            0                       # Time in different power states (Tick)
system.mem_ctrl.power_state.pwrStateResidencyTicks::UNDEFINED 326444307250                       # Cumulative time (in ticks) in various power states (Tick)
system.membus.transDist::ReadResp              886232                       # Transaction distribution (Count)
system.membus.transDist::WritebackDirty        360842                       # Transaction distribution (Count)
system.membus.transDist::CleanEvict            621181                       # Transaction distribution (Count)
system.membus.transDist::UpgradeReq               424                       # Transaction distribution (Count)
system.membus.transDist::ReadExReq             100435                       # Transaction distribution (Count)
system.membus.transDist::ReadExResp            100434                       # Transaction distribution (Count)
system.membus.transDist::ReadSharedReq         886232                       # Transaction distribution (Count)
system.membus.pktCount_system.l2cache.mem_side_port::system.mem_ctrl.port      2955780                       # Packet count per connected requestor and responder (Count)
system.membus.pktCount_system.l2cache.mem_side_port::total      2955780                       # Packet count per connected requestor and responder (Count)
system.membus.pktCount::total                 2955780                       # Packet count per connected requestor and responder (Count)
system.membus.pktSize_system.l2cache.mem_side_port::system.mem_ctrl.port     86240512                       # Cumulative packet size per connected requestor and responder (Byte)
system.membus.pktSize_system.l2cache.mem_side_port::total     86240512                       # Cumulative packet size per connected requestor and responder (Byte)
system.membus.pktSize::total                 86240512                       # Cumulative packet size per connected requestor and responder (Byte)
system.membus.snoops                               34                       # Total snoops (Count)
system.membus.snoopTraffic                          0                       # Total snoop traffic (Byte)
system.membus.snoopFanout::samples             987091                       # Request fanout histogram (Count)
system.membus.snoopFanout::mean                     0                       # Request fanout histogram (Count)
system.membus.snoopFanout::stdev                    0                       # Request fanout histogram (Count)
system.membus.snoopFanout::underflows               0      0.00%      0.00% # Request fanout histogram (Count)
system.membus.snoopFanout::0                   987091    100.00%    100.00% # Request fanout histogram (Count)
system.membus.snoopFanout::1                        0      0.00%    100.00% # Request fanout histogram (Count)
system.membus.snoopFanout::overflows                0      0.00%    100.00% # Request fanout histogram (Count)
system.membus.snoopFanout::min_value                0                       # Request fanout histogram (Count)
system.membus.snoopFanout::max_value                0                       # Request fanout histogram (Count)
system.membus.snoopFanout::total               987091                       # Request fanout histogram (Count)
system.membus.power_state.pwrStateResidencyTicks::UNDEFINED 326444307250                       # Cumulative time (in ticks) in various power states (Tick)
system.membus.reqLayer8.occupancy          2276102817                       # Layer occupancy (ticks) (Tick)
system.membus.reqLayer8.utilization               0.0                       # Layer utilization (Ratio)
system.membus.respLayer0.occupancy         3743719939                       # Layer occupancy (ticks) (Tick)
system.membus.respLayer0.utilization              0.0                       # Layer utilization (Ratio)
system.membus.snoop_filter.totRequests        1969114                       # Total number of requests made to the snoop filter. (Count)
system.membus.snoop_filter.hitSingleRequests       982980                       # Number of requests hitting in the snoop filter with a single holder of the requested data. (Count)
system.membus.snoop_filter.hitMultiRequests            0                       # Number of requests hitting in the snoop filter with multiple (>1) holders of the requested data. (Count)
system.membus.snoop_filter.totSnoops                0                       # Total number of snoops made to the snoop filter. (Count)
system.membus.snoop_filter.hitSingleSnoops            0                       # Number of snoops hitting in the snoop filter with a single holder of the requested data. (Count)
system.membus.snoop_filter.hitMultiSnoops            0                       # Number of snoops hitting in the snoop filter with multiple (>1) holders of the requested data. (Count)
system.workload.inst.arm                            0                       # number of arm instructions executed (Count)
system.workload.inst.quiesce                        0                       # number of quiesce instructions executed (Count)

---------- End Simulation Statistics   ----------
