
---------- Begin Simulation Statistics ----------
simSeconds                                   0.543392                       # Number of seconds simulated (Second)
simTicks                                 543392278000                       # Number of ticks simulated (Tick)
finalTick                                543392278000                       # Number of ticks from beginning of simulation (restored from checkpoints and never reset) (Tick)
simFreq                                  1000000000000                       # The number of ticks per simulated second ((Tick/Second))
hostSeconds                                  11043.50                       # Real time elapsed on the host (Second)
hostTickRate                                 49204708                       # The number of ticks simulated per host second (ticks/s) ((Tick/Second))
hostMemory                                    9645988                       # Number of bytes of host memory used (Byte)
simInsts                                   1178373335                       # Number of instructions simulated (Count)
simOps                                     2121046551                       # Number of ops (including micro ops) simulated (Count)
hostInstRate                                   106703                       # Simulator instruction rate (inst/s) ((Count/Second))
hostOpRate                                     192063                       # Simulator op (including micro ops) rate (op/s) ((Count/Second))
system.clk_domain.clock                           500                       # Clock period in ticks (Tick)
system.clk_domain.voltage_domain.voltage     1.100000                       # Voltage in Volts (Volt)
system.cpu0.numCycles                      1086784557                       # Number of cpu cycles simulated (Cycle)
system.cpu0.cpi                              0.922275                       # CPI: cycles per instruction (core level) ((Cycle/Count))
system.cpu0.ipc                              1.084275                       # IPC: instructions per cycle (core level) ((Count/Cycle))
system.cpu0.numWorkItemsStarted                     0                       # Number of work items this cpu started (Count)
system.cpu0.numWorkItemsCompleted                   0                       # Number of work items this cpu completed (Count)
system.cpu0.instsAdded                     2297724057                       # Number of instructions added to the IQ (excludes non-spec) (Count)
system.cpu0.nonSpecInstsAdded                   22931                       # Number of non-speculative instructions added to the IQ (Count)
system.cpu0.instsIssued                    2247788907                       # Number of instructions issued (Count)
system.cpu0.squashedInstsIssued               1436332                       # Number of squashed instructions issued (Count)
system.cpu0.squashedInstsExamined           176700431                       # Number of squashed instructions iterated over during squash; mainly for profiling (Count)
system.cpu0.squashedOperandsExamined        277990607                       # Number of squashed operands that are examined and possibly removed from graph (Count)
system.cpu0.squashedNonSpecRemoved               8642                       # Number of squashed non-spec instructions that were removed (Count)
system.cpu0.numIssuedDist::samples         1039833710                       # Number of insts issued each cycle (Count)
system.cpu0.numIssuedDist::mean              2.161681                       # Number of insts issued each cycle (Count)
system.cpu0.numIssuedDist::stdev             2.517612                       # Number of insts issued each cycle (Count)
system.cpu0.numIssuedDist::underflows               0      0.00%      0.00% # Number of insts issued each cycle (Count)
system.cpu0.numIssuedDist::0                472403897     45.43%     45.43% # Number of insts issued each cycle (Count)
system.cpu0.numIssuedDist::1                 85694489      8.24%     53.67% # Number of insts issued each cycle (Count)
system.cpu0.numIssuedDist::2                 87833610      8.45%     62.12% # Number of insts issued each cycle (Count)
system.cpu0.numIssuedDist::3                 79313874      7.63%     69.75% # Number of insts issued each cycle (Count)
system.cpu0.numIssuedDist::4                 96076360      9.24%     78.99% # Number of insts issued each cycle (Count)
system.cpu0.numIssuedDist::5                 67151935      6.46%     85.44% # Number of insts issued each cycle (Count)
system.cpu0.numIssuedDist::6                 66404285      6.39%     91.83% # Number of insts issued each cycle (Count)
system.cpu0.numIssuedDist::7                 49647329      4.77%     96.60% # Number of insts issued each cycle (Count)
system.cpu0.numIssuedDist::8                 35307931      3.40%    100.00% # Number of insts issued each cycle (Count)
system.cpu0.numIssuedDist::overflows                0      0.00%    100.00% # Number of insts issued each cycle (Count)
system.cpu0.numIssuedDist::min_value                0                       # Number of insts issued each cycle (Count)
system.cpu0.numIssuedDist::max_value                8                       # Number of insts issued each cycle (Count)
system.cpu0.numIssuedDist::total           1039833710                       # Number of insts issued each cycle (Count)
system.cpu0.statFuBusy::No_OpClass                  0      0.00%      0.00% # attempts to use FU when none available (Count)
system.cpu0.statFuBusy::IntAlu               31125728     90.25%     90.25% # attempts to use FU when none available (Count)
system.cpu0.statFuBusy::IntMult                     0      0.00%     90.25% # attempts to use FU when none available (Count)
system.cpu0.statFuBusy::IntDiv                      0      0.00%     90.25% # attempts to use FU when none available (Count)
system.cpu0.statFuBusy::FloatAdd                    0      0.00%     90.25% # attempts to use FU when none available (Count)
system.cpu0.statFuBusy::FloatCmp                    0      0.00%     90.25% # attempts to use FU when none available (Count)
system.cpu0.statFuBusy::FloatCvt                    0      0.00%     90.25% # attempts to use FU when none available (Count)
system.cpu0.statFuBusy::FloatMult                   0      0.00%     90.25% # attempts to use FU when none available (Count)
system.cpu0.statFuBusy::FloatMultAcc                0      0.00%     90.25% # attempts to use FU when none available (Count)
system.cpu0.statFuBusy::FloatDiv                    0      0.00%     90.25% # attempts to use FU when none available (Count)
system.cpu0.statFuBusy::FloatMisc                   0      0.00%     90.25% # attempts to use FU when none available (Count)
system.cpu0.statFuBusy::FloatSqrt                   0      0.00%     90.25% # attempts to use FU when none available (Count)
system.cpu0.statFuBusy::SimdAdd                    41      0.00%     90.25% # attempts to use FU when none available (Count)
system.cpu0.statFuBusy::SimdAddAcc                  0      0.00%     90.25% # attempts to use FU when none available (Count)
system.cpu0.statFuBusy::SimdAlu                 29552      0.09%     90.33% # attempts to use FU when none available (Count)
system.cpu0.statFuBusy::SimdCmp                    36      0.00%     90.33% # attempts to use FU when none available (Count)
system.cpu0.statFuBusy::SimdCvt                  1469      0.00%     90.34% # attempts to use FU when none available (Count)
system.cpu0.statFuBusy::SimdMisc                 3894      0.01%     90.35% # attempts to use FU when none available (Count)
system.cpu0.statFuBusy::SimdMult                    0      0.00%     90.35% # attempts to use FU when none available (Count)
system.cpu0.statFuBusy::SimdMultAcc                 0      0.00%     90.35% # attempts to use FU when none available (Count)
system.cpu0.statFuBusy::SimdMatMultAcc              0      0.00%     90.35% # attempts to use FU when none available (Count)
system.cpu0.statFuBusy::SimdShift                 351      0.00%     90.35% # attempts to use FU when none available (Count)
system.cpu0.statFuBusy::SimdShiftAcc                0      0.00%     90.35% # attempts to use FU when none available (Count)
system.cpu0.statFuBusy::SimdDiv                     0      0.00%     90.35% # attempts to use FU when none available (Count)
system.cpu0.statFuBusy::SimdSqrt                    0      0.00%     90.35% # attempts to use FU when none available (Count)
system.cpu0.statFuBusy::SimdFloatAdd                0      0.00%     90.35% # attempts to use FU when none available (Count)
system.cpu0.statFuBusy::SimdFloatAlu                0      0.00%     90.35% # attempts to use FU when none available (Count)
system.cpu0.statFuBusy::SimdFloatCmp                0      0.00%     90.35% # attempts to use FU when none available (Count)
system.cpu0.statFuBusy::SimdFloatCvt                0      0.00%     90.35% # attempts to use FU when none available (Count)
system.cpu0.statFuBusy::SimdFloatDiv                0      0.00%     90.35% # attempts to use FU when none available (Count)
system.cpu0.statFuBusy::SimdFloatMisc               0      0.00%     90.35% # attempts to use FU when none available (Count)
system.cpu0.statFuBusy::SimdFloatMult               0      0.00%     90.35% # attempts to use FU when none available (Count)
system.cpu0.statFuBusy::SimdFloatMultAcc            0      0.00%     90.35% # attempts to use FU when none available (Count)
system.cpu0.statFuBusy::SimdFloatMatMultAcc            0      0.00%     90.35% # attempts to use FU when none available (Count)
system.cpu0.statFuBusy::SimdFloatSqrt               0      0.00%     90.35% # attempts to use FU when none available (Count)
system.cpu0.statFuBusy::SimdReduceAdd               0      0.00%     90.35% # attempts to use FU when none available (Count)
system.cpu0.statFuBusy::SimdReduceAlu               0      0.00%     90.35% # attempts to use FU when none available (Count)
system.cpu0.statFuBusy::SimdReduceCmp               0      0.00%     90.35% # attempts to use FU when none available (Count)
system.cpu0.statFuBusy::SimdFloatReduceAdd            0      0.00%     90.35% # attempts to use FU when none available (Count)
system.cpu0.statFuBusy::SimdFloatReduceCmp            0      0.00%     90.35% # attempts to use FU when none available (Count)
system.cpu0.statFuBusy::SimdAes                     0      0.00%     90.35% # attempts to use FU when none available (Count)
system.cpu0.statFuBusy::SimdAesMix                  0      0.00%     90.35% # attempts to use FU when none available (Count)
system.cpu0.statFuBusy::SimdSha1Hash                0      0.00%     90.35% # attempts to use FU when none available (Count)
system.cpu0.statFuBusy::SimdSha1Hash2               0      0.00%     90.35% # attempts to use FU when none available (Count)
system.cpu0.statFuBusy::SimdSha256Hash              0      0.00%     90.35% # attempts to use FU when none available (Count)
system.cpu0.statFuBusy::SimdSha256Hash2             0      0.00%     90.35% # attempts to use FU when none available (Count)
system.cpu0.statFuBusy::SimdShaSigma2               0      0.00%     90.35% # attempts to use FU when none available (Count)
system.cpu0.statFuBusy::SimdShaSigma3               0      0.00%     90.35% # attempts to use FU when none available (Count)
system.cpu0.statFuBusy::SimdPredAlu                 0      0.00%     90.35% # attempts to use FU when none available (Count)
system.cpu0.statFuBusy::Matrix                      0      0.00%     90.35% # attempts to use FU when none available (Count)
system.cpu0.statFuBusy::MatrixMov                   0      0.00%     90.35% # attempts to use FU when none available (Count)
system.cpu0.statFuBusy::MatrixOP                    0      0.00%     90.35% # attempts to use FU when none available (Count)
system.cpu0.statFuBusy::MemRead               1678451      4.87%     95.22% # attempts to use FU when none available (Count)
system.cpu0.statFuBusy::MemWrite              1307379      3.79%     99.01% # attempts to use FU when none available (Count)
system.cpu0.statFuBusy::FloatMemRead           117651      0.34%     99.35% # attempts to use FU when none available (Count)
system.cpu0.statFuBusy::FloatMemWrite          225221      0.65%    100.00% # attempts to use FU when none available (Count)
system.cpu0.statFuBusy::IprAccess                   0      0.00%    100.00% # attempts to use FU when none available (Count)
system.cpu0.statFuBusy::InstPrefetch                0      0.00%    100.00% # attempts to use FU when none available (Count)
system.cpu0.statFuBusy::VectorUnitStrideLoad            0      0.00%    100.00% # attempts to use FU when none available (Count)
system.cpu0.statFuBusy::VectorUnitStrideStore            0      0.00%    100.00% # attempts to use FU when none available (Count)
system.cpu0.statFuBusy::VectorUnitStrideMaskLoad            0      0.00%    100.00% # attempts to use FU when none available (Count)
system.cpu0.statFuBusy::VectorUnitStrideMaskStore            0      0.00%    100.00% # attempts to use FU when none available (Count)
system.cpu0.statFuBusy::VectorStridedLoad            0      0.00%    100.00% # attempts to use FU when none available (Count)
system.cpu0.statFuBusy::VectorStridedStore            0      0.00%    100.00% # attempts to use FU when none available (Count)
system.cpu0.statFuBusy::VectorIndexedLoad            0      0.00%    100.00% # attempts to use FU when none available (Count)
system.cpu0.statFuBusy::VectorIndexedStore            0      0.00%    100.00% # attempts to use FU when none available (Count)
system.cpu0.statFuBusy::VectorUnitStrideFaultOnlyFirstLoad            0      0.00%    100.00% # attempts to use FU when none available (Count)
system.cpu0.statFuBusy::VectorWholeRegisterLoad            0      0.00%    100.00% # attempts to use FU when none available (Count)
system.cpu0.statFuBusy::VectorWholeRegisterStore            0      0.00%    100.00% # attempts to use FU when none available (Count)
system.cpu0.statFuBusy::VectorIntegerArith            0      0.00%    100.00% # attempts to use FU when none available (Count)
system.cpu0.statFuBusy::VectorFloatArith            0      0.00%    100.00% # attempts to use FU when none available (Count)
system.cpu0.statFuBusy::VectorFloatConvert            0      0.00%    100.00% # attempts to use FU when none available (Count)
system.cpu0.statFuBusy::VectorIntegerReduce            0      0.00%    100.00% # attempts to use FU when none available (Count)
system.cpu0.statFuBusy::VectorFloatReduce            0      0.00%    100.00% # attempts to use FU when none available (Count)
system.cpu0.statFuBusy::VectorMisc                  0      0.00%    100.00% # attempts to use FU when none available (Count)
system.cpu0.statFuBusy::VectorIntegerExtension            0      0.00%    100.00% # attempts to use FU when none available (Count)
system.cpu0.statFuBusy::VectorConfig                0      0.00%    100.00% # attempts to use FU when none available (Count)
system.cpu0.statIssuedInstType_0::No_OpClass     24383486      1.08%      1.08% # Number of instructions issued per FU type, per thread (Count)
system.cpu0.statIssuedInstType_0::IntAlu   1694089743     75.37%     76.45% # Number of instructions issued per FU type, per thread (Count)
system.cpu0.statIssuedInstType_0::IntMult       954340      0.04%     76.49% # Number of instructions issued per FU type, per thread (Count)
system.cpu0.statIssuedInstType_0::IntDiv       191585      0.01%     76.50% # Number of instructions issued per FU type, per thread (Count)
system.cpu0.statIssuedInstType_0::FloatAdd      1344431      0.06%     76.56% # Number of instructions issued per FU type, per thread (Count)
system.cpu0.statIssuedInstType_0::FloatCmp           20      0.00%     76.56% # Number of instructions issued per FU type, per thread (Count)
system.cpu0.statIssuedInstType_0::FloatCvt           64      0.00%     76.56% # Number of instructions issued per FU type, per thread (Count)
system.cpu0.statIssuedInstType_0::FloatMult            8      0.00%     76.56% # Number of instructions issued per FU type, per thread (Count)
system.cpu0.statIssuedInstType_0::FloatMultAcc            0      0.00%     76.56% # Number of instructions issued per FU type, per thread (Count)
system.cpu0.statIssuedInstType_0::FloatDiv           38      0.00%     76.56% # Number of instructions issued per FU type, per thread (Count)
system.cpu0.statIssuedInstType_0::FloatMisc            0      0.00%     76.56% # Number of instructions issued per FU type, per thread (Count)
system.cpu0.statIssuedInstType_0::FloatSqrt            0      0.00%     76.56% # Number of instructions issued per FU type, per thread (Count)
system.cpu0.statIssuedInstType_0::SimdAdd        32667      0.00%     76.56% # Number of instructions issued per FU type, per thread (Count)
system.cpu0.statIssuedInstType_0::SimdAddAcc            0      0.00%     76.56% # Number of instructions issued per FU type, per thread (Count)
system.cpu0.statIssuedInstType_0::SimdAlu       917621      0.04%     76.60% # Number of instructions issued per FU type, per thread (Count)
system.cpu0.statIssuedInstType_0::SimdCmp         8627      0.00%     76.61% # Number of instructions issued per FU type, per thread (Count)
system.cpu0.statIssuedInstType_0::SimdCvt       147514      0.01%     76.61% # Number of instructions issued per FU type, per thread (Count)
system.cpu0.statIssuedInstType_0::SimdMisc      2396787      0.11%     76.72% # Number of instructions issued per FU type, per thread (Count)
system.cpu0.statIssuedInstType_0::SimdMult            0      0.00%     76.72% # Number of instructions issued per FU type, per thread (Count)
system.cpu0.statIssuedInstType_0::SimdMultAcc            0      0.00%     76.72% # Number of instructions issued per FU type, per thread (Count)
system.cpu0.statIssuedInstType_0::SimdMatMultAcc            0      0.00%     76.72% # Number of instructions issued per FU type, per thread (Count)
system.cpu0.statIssuedInstType_0::SimdShift        10382      0.00%     76.72% # Number of instructions issued per FU type, per thread (Count)
system.cpu0.statIssuedInstType_0::SimdShiftAcc            0      0.00%     76.72% # Number of instructions issued per FU type, per thread (Count)
system.cpu0.statIssuedInstType_0::SimdDiv            0      0.00%     76.72% # Number of instructions issued per FU type, per thread (Count)
system.cpu0.statIssuedInstType_0::SimdSqrt            0      0.00%     76.72% # Number of instructions issued per FU type, per thread (Count)
system.cpu0.statIssuedInstType_0::SimdFloatAdd          574      0.00%     76.72% # Number of instructions issued per FU type, per thread (Count)
system.cpu0.statIssuedInstType_0::SimdFloatAlu            0      0.00%     76.72% # Number of instructions issued per FU type, per thread (Count)
system.cpu0.statIssuedInstType_0::SimdFloatCmp            1      0.00%     76.72% # Number of instructions issued per FU type, per thread (Count)
system.cpu0.statIssuedInstType_0::SimdFloatCvt         1393      0.00%     76.72% # Number of instructions issued per FU type, per thread (Count)
system.cpu0.statIssuedInstType_0::SimdFloatDiv           19      0.00%     76.72% # Number of instructions issued per FU type, per thread (Count)
system.cpu0.statIssuedInstType_0::SimdFloatMisc            0      0.00%     76.72% # Number of instructions issued per FU type, per thread (Count)
system.cpu0.statIssuedInstType_0::SimdFloatMult          575      0.00%     76.72% # Number of instructions issued per FU type, per thread (Count)
system.cpu0.statIssuedInstType_0::SimdFloatMultAcc            0      0.00%     76.72% # Number of instructions issued per FU type, per thread (Count)
system.cpu0.statIssuedInstType_0::SimdFloatMatMultAcc            0      0.00%     76.72% # Number of instructions issued per FU type, per thread (Count)
system.cpu0.statIssuedInstType_0::SimdFloatSqrt            1      0.00%     76.72% # Number of instructions issued per FU type, per thread (Count)
system.cpu0.statIssuedInstType_0::SimdReduceAdd            0      0.00%     76.72% # Number of instructions issued per FU type, per thread (Count)
system.cpu0.statIssuedInstType_0::SimdReduceAlu            0      0.00%     76.72% # Number of instructions issued per FU type, per thread (Count)
system.cpu0.statIssuedInstType_0::SimdReduceCmp            0      0.00%     76.72% # Number of instructions issued per FU type, per thread (Count)
system.cpu0.statIssuedInstType_0::SimdFloatReduceAdd            0      0.00%     76.72% # Number of instructions issued per FU type, per thread (Count)
system.cpu0.statIssuedInstType_0::SimdFloatReduceCmp            0      0.00%     76.72% # Number of instructions issued per FU type, per thread (Count)
system.cpu0.statIssuedInstType_0::SimdAes            0      0.00%     76.72% # Number of instructions issued per FU type, per thread (Count)
system.cpu0.statIssuedInstType_0::SimdAesMix            0      0.00%     76.72% # Number of instructions issued per FU type, per thread (Count)
system.cpu0.statIssuedInstType_0::SimdSha1Hash            0      0.00%     76.72% # Number of instructions issued per FU type, per thread (Count)
system.cpu0.statIssuedInstType_0::SimdSha1Hash2            0      0.00%     76.72% # Number of instructions issued per FU type, per thread (Count)
system.cpu0.statIssuedInstType_0::SimdSha256Hash            0      0.00%     76.72% # Number of instructions issued per FU type, per thread (Count)
system.cpu0.statIssuedInstType_0::SimdSha256Hash2            0      0.00%     76.72% # Number of instructions issued per FU type, per thread (Count)
system.cpu0.statIssuedInstType_0::SimdShaSigma2            0      0.00%     76.72% # Number of instructions issued per FU type, per thread (Count)
system.cpu0.statIssuedInstType_0::SimdShaSigma3            0      0.00%     76.72% # Number of instructions issued per FU type, per thread (Count)
system.cpu0.statIssuedInstType_0::SimdPredAlu            0      0.00%     76.72% # Number of instructions issued per FU type, per thread (Count)
system.cpu0.statIssuedInstType_0::Matrix            0      0.00%     76.72% # Number of instructions issued per FU type, per thread (Count)
system.cpu0.statIssuedInstType_0::MatrixMov            0      0.00%     76.72% # Number of instructions issued per FU type, per thread (Count)
system.cpu0.statIssuedInstType_0::MatrixOP            0      0.00%     76.72% # Number of instructions issued per FU type, per thread (Count)
system.cpu0.statIssuedInstType_0::MemRead    359770915     16.01%     92.72% # Number of instructions issued per FU type, per thread (Count)
system.cpu0.statIssuedInstType_0::MemWrite    157455160      7.00%     99.73% # Number of instructions issued per FU type, per thread (Count)
system.cpu0.statIssuedInstType_0::FloatMemRead      1213492      0.05%     99.78% # Number of instructions issued per FU type, per thread (Count)
system.cpu0.statIssuedInstType_0::FloatMemWrite      4869464      0.22%    100.00% # Number of instructions issued per FU type, per thread (Count)
system.cpu0.statIssuedInstType_0::IprAccess            0      0.00%    100.00% # Number of instructions issued per FU type, per thread (Count)
system.cpu0.statIssuedInstType_0::InstPrefetch            0      0.00%    100.00% # Number of instructions issued per FU type, per thread (Count)
system.cpu0.statIssuedInstType_0::VectorUnitStrideLoad            0      0.00%    100.00% # Number of instructions issued per FU type, per thread (Count)
system.cpu0.statIssuedInstType_0::VectorUnitStrideStore            0      0.00%    100.00% # Number of instructions issued per FU type, per thread (Count)
system.cpu0.statIssuedInstType_0::VectorUnitStrideMaskLoad            0      0.00%    100.00% # Number of instructions issued per FU type, per thread (Count)
system.cpu0.statIssuedInstType_0::VectorUnitStrideMaskStore            0      0.00%    100.00% # Number of instructions issued per FU type, per thread (Count)
system.cpu0.statIssuedInstType_0::VectorStridedLoad            0      0.00%    100.00% # Number of instructions issued per FU type, per thread (Count)
system.cpu0.statIssuedInstType_0::VectorStridedStore            0      0.00%    100.00% # Number of instructions issued per FU type, per thread (Count)
system.cpu0.statIssuedInstType_0::VectorIndexedLoad            0      0.00%    100.00% # Number of instructions issued per FU type, per thread (Count)
system.cpu0.statIssuedInstType_0::VectorIndexedStore            0      0.00%    100.00% # Number of instructions issued per FU type, per thread (Count)
system.cpu0.statIssuedInstType_0::VectorUnitStrideFaultOnlyFirstLoad            0      0.00%    100.00% # Number of instructions issued per FU type, per thread (Count)
system.cpu0.statIssuedInstType_0::VectorWholeRegisterLoad            0      0.00%    100.00% # Number of instructions issued per FU type, per thread (Count)
system.cpu0.statIssuedInstType_0::VectorWholeRegisterStore            0      0.00%    100.00% # Number of instructions issued per FU type, per thread (Count)
system.cpu0.statIssuedInstType_0::VectorIntegerArith            0      0.00%    100.00% # Number of instructions issued per FU type, per thread (Count)
system.cpu0.statIssuedInstType_0::VectorFloatArith            0      0.00%    100.00% # Number of instructions issued per FU type, per thread (Count)
system.cpu0.statIssuedInstType_0::VectorFloatConvert            0      0.00%    100.00% # Number of instructions issued per FU type, per thread (Count)
system.cpu0.statIssuedInstType_0::VectorIntegerReduce            0      0.00%    100.00% # Number of instructions issued per FU type, per thread (Count)
system.cpu0.statIssuedInstType_0::VectorFloatReduce            0      0.00%    100.00% # Number of instructions issued per FU type, per thread (Count)
system.cpu0.statIssuedInstType_0::VectorMisc            0      0.00%    100.00% # Number of instructions issued per FU type, per thread (Count)
system.cpu0.statIssuedInstType_0::VectorIntegerExtension            0      0.00%    100.00% # Number of instructions issued per FU type, per thread (Count)
system.cpu0.statIssuedInstType_0::VectorConfig            0      0.00%    100.00% # Number of instructions issued per FU type, per thread (Count)
system.cpu0.statIssuedInstType_0::total    2247788907                       # Number of instructions issued per FU type, per thread (Count)
system.cpu0.issueRate                        2.068293                       # Inst issue rate ((Count/Cycle))
system.cpu0.fuBusy                           34489773                       # FU busy when requested (Count)
system.cpu0.fuBusyRate                       0.015344                       # FU busy rate (busy events/executed inst) ((Count/Count))
system.cpu0.intInstQueueReads              5547453170                       # Number of integer instruction queue reads (Count)
system.cpu0.intInstQueueWrites             2461573712                       # Number of integer instruction queue writes (Count)
system.cpu0.intInstQueueWakeupAccesses     2220731759                       # Number of integer instruction queue wakeup accesses (Count)
system.cpu0.fpInstQueueReads                 23884459                       # Number of floating instruction queue reads (Count)
system.cpu0.fpInstQueueWrites                12944881                       # Number of floating instruction queue writes (Count)
system.cpu0.fpInstQueueWakeupAccesses        11595266                       # Number of floating instruction queue wakeup accesses (Count)
system.cpu0.vecInstQueueReads                       0                       # Number of vector instruction queue reads (Count)
system.cpu0.vecInstQueueWrites                      0                       # Number of vector instruction queue writes (Count)
system.cpu0.vecInstQueueWakeupAccesses              0                       # Number of vector instruction queue wakeup accesses (Count)
system.cpu0.intAluAccesses                 2245769179                       # Number of integer alu accesses (Count)
system.cpu0.fpAluAccesses                    12126015                       # Number of floating point alu accesses (Count)
system.cpu0.vecAluAccesses                          0                       # Number of vector alu accesses (Count)
system.cpu0.numSquashedInsts                  9883935                       # Number of squashed instructions skipped in execute (Count)
system.cpu0.numSwp                                  0                       # Number of swp insts executed (Count)
system.cpu0.timesIdled                        6549786                       # Number of times that the entire CPU went into an idle state and unscheduled itself (Count)
system.cpu0.idleCycles                       46950847                       # Total number of cycles that the CPU has spent unscheduled due to idling (Cycle)
system.cpu0.MemDepUnit__0.insertedLoads     369185534                       # Number of loads inserted to the mem dependence unit. (Count)
system.cpu0.MemDepUnit__0.insertedStores    166226775                       # Number of stores inserted to the mem dependence unit. (Count)
system.cpu0.MemDepUnit__0.conflictingLoads     12792923                       # Number of conflicting loads. (Count)
system.cpu0.MemDepUnit__0.conflictingStores      7484038                       # Number of conflicting stores. (Count)
system.cpu0.MemDepUnit__1.insertedLoads             0                       # Number of loads inserted to the mem dependence unit. (Count)
system.cpu0.MemDepUnit__1.insertedStores            0                       # Number of stores inserted to the mem dependence unit. (Count)
system.cpu0.MemDepUnit__1.conflictingLoads            0                       # Number of conflicting loads. (Count)
system.cpu0.MemDepUnit__1.conflictingStores            0                       # Number of conflicting stores. (Count)
system.cpu0.MemDepUnit__2.insertedLoads             0                       # Number of loads inserted to the mem dependence unit. (Count)
system.cpu0.MemDepUnit__2.insertedStores            0                       # Number of stores inserted to the mem dependence unit. (Count)
system.cpu0.MemDepUnit__2.conflictingLoads            0                       # Number of conflicting loads. (Count)
system.cpu0.MemDepUnit__2.conflictingStores            0                       # Number of conflicting stores. (Count)
system.cpu0.MemDepUnit__3.insertedLoads             0                       # Number of loads inserted to the mem dependence unit. (Count)
system.cpu0.MemDepUnit__3.insertedStores            0                       # Number of stores inserted to the mem dependence unit. (Count)
system.cpu0.MemDepUnit__3.conflictingLoads            0                       # Number of conflicting loads. (Count)
system.cpu0.MemDepUnit__3.conflictingStores            0                       # Number of conflicting stores. (Count)
system.cpu0.branchPred.lookups_0::NoBranch         7088      0.00%      0.00% # Number of BP lookups (Count)
system.cpu0.branchPred.lookups_0::Return     12119325      4.56%      4.56% # Number of BP lookups (Count)
system.cpu0.branchPred.lookups_0::CallDirect      6421304      2.42%      6.98% # Number of BP lookups (Count)
system.cpu0.branchPred.lookups_0::CallIndirect      5959824      2.24%      9.22% # Number of BP lookups (Count)
system.cpu0.branchPred.lookups_0::DirectCond    224945745     84.60%     93.82% # Number of BP lookups (Count)
system.cpu0.branchPred.lookups_0::DirectUncond      5464882      2.06%     95.87% # Number of BP lookups (Count)
system.cpu0.branchPred.lookups_0::IndirectCond            0      0.00%     95.87% # Number of BP lookups (Count)
system.cpu0.branchPred.lookups_0::IndirectUncond     10971134      4.13%    100.00% # Number of BP lookups (Count)
system.cpu0.branchPred.lookups_0::total     265889302                       # Number of BP lookups (Count)
system.cpu0.branchPred.squashes_0::NoBranch         6454      0.02%      0.02% # Number of branches that got squashed (completely removed) as an earlier branch was mispredicted. (Count)
system.cpu0.branchPred.squashes_0::Return      1228347      4.30%      4.32% # Number of branches that got squashed (completely removed) as an earlier branch was mispredicted. (Count)
system.cpu0.branchPred.squashes_0::CallDirect       944161      3.30%      7.62% # Number of branches that got squashed (completely removed) as an earlier branch was mispredicted. (Count)
system.cpu0.branchPred.squashes_0::CallIndirect       545984      1.91%      9.53% # Number of branches that got squashed (completely removed) as an earlier branch was mispredicted. (Count)
system.cpu0.branchPred.squashes_0::DirectCond     24069597     84.19%     93.73% # Number of branches that got squashed (completely removed) as an earlier branch was mispredicted. (Count)
system.cpu0.branchPred.squashes_0::DirectUncond       951205      3.33%     97.05% # Number of branches that got squashed (completely removed) as an earlier branch was mispredicted. (Count)
system.cpu0.branchPred.squashes_0::IndirectCond            0      0.00%     97.05% # Number of branches that got squashed (completely removed) as an earlier branch was mispredicted. (Count)
system.cpu0.branchPred.squashes_0::IndirectUncond       842381      2.95%    100.00% # Number of branches that got squashed (completely removed) as an earlier branch was mispredicted. (Count)
system.cpu0.branchPred.squashes_0::total     28588129                       # Number of branches that got squashed (completely removed) as an earlier branch was mispredicted. (Count)
system.cpu0.branchPred.corrected_0::NoBranch         1534      0.03%      0.03% # Number of branches that got corrected but not yet commited. Branches get corrected by decode or after execute. Also a branch misprediction can be detected out-of-order. Therefore, a corrected branch might not end up beeing committed in case an even earlier branch was mispredicted (Count)
system.cpu0.branchPred.corrected_0::Return        53478      1.05%      1.08% # Number of branches that got corrected but not yet commited. Branches get corrected by decode or after execute. Also a branch misprediction can be detected out-of-order. Therefore, a corrected branch might not end up beeing committed in case an even earlier branch was mispredicted (Count)
system.cpu0.branchPred.corrected_0::CallDirect       146922      2.89%      3.97% # Number of branches that got corrected but not yet commited. Branches get corrected by decode or after execute. Also a branch misprediction can be detected out-of-order. Therefore, a corrected branch might not end up beeing committed in case an even earlier branch was mispredicted (Count)
system.cpu0.branchPred.corrected_0::CallIndirect       260942      5.13%      9.10% # Number of branches that got corrected but not yet commited. Branches get corrected by decode or after execute. Also a branch misprediction can be detected out-of-order. Therefore, a corrected branch might not end up beeing committed in case an even earlier branch was mispredicted (Count)
system.cpu0.branchPred.corrected_0::DirectCond      3601063     70.76%     79.86% # Number of branches that got corrected but not yet commited. Branches get corrected by decode or after execute. Also a branch misprediction can be detected out-of-order. Therefore, a corrected branch might not end up beeing committed in case an even earlier branch was mispredicted (Count)
system.cpu0.branchPred.corrected_0::DirectUncond       151042      2.97%     82.82% # Number of branches that got corrected but not yet commited. Branches get corrected by decode or after execute. Also a branch misprediction can be detected out-of-order. Therefore, a corrected branch might not end up beeing committed in case an even earlier branch was mispredicted (Count)
system.cpu0.branchPred.corrected_0::IndirectCond            0      0.00%     82.82% # Number of branches that got corrected but not yet commited. Branches get corrected by decode or after execute. Also a branch misprediction can be detected out-of-order. Therefore, a corrected branch might not end up beeing committed in case an even earlier branch was mispredicted (Count)
system.cpu0.branchPred.corrected_0::IndirectUncond       874155     17.18%    100.00% # Number of branches that got corrected but not yet commited. Branches get corrected by decode or after execute. Also a branch misprediction can be detected out-of-order. Therefore, a corrected branch might not end up beeing committed in case an even earlier branch was mispredicted (Count)
system.cpu0.branchPred.corrected_0::total      5089136                       # Number of branches that got corrected but not yet commited. Branches get corrected by decode or after execute. Also a branch misprediction can be detected out-of-order. Therefore, a corrected branch might not end up beeing committed in case an even earlier branch was mispredicted (Count)
system.cpu0.branchPred.earlyResteers_0::NoBranch            0                       # Number of branches that got redirected after decode. (Count)
system.cpu0.branchPred.earlyResteers_0::Return            0                       # Number of branches that got redirected after decode. (Count)
system.cpu0.branchPred.earlyResteers_0::CallDirect            0                       # Number of branches that got redirected after decode. (Count)
system.cpu0.branchPred.earlyResteers_0::CallIndirect            0                       # Number of branches that got redirected after decode. (Count)
system.cpu0.branchPred.earlyResteers_0::DirectCond            0                       # Number of branches that got redirected after decode. (Count)
system.cpu0.branchPred.earlyResteers_0::DirectUncond            0                       # Number of branches that got redirected after decode. (Count)
system.cpu0.branchPred.earlyResteers_0::IndirectCond            0                       # Number of branches that got redirected after decode. (Count)
system.cpu0.branchPred.earlyResteers_0::IndirectUncond            0                       # Number of branches that got redirected after decode. (Count)
system.cpu0.branchPred.earlyResteers_0::total            0                       # Number of branches that got redirected after decode. (Count)
system.cpu0.branchPred.committed_0::NoBranch          634      0.00%      0.00% # Number of branches finally committed  (Count)
system.cpu0.branchPred.committed_0::Return     10890978      4.59%      4.59% # Number of branches finally committed  (Count)
system.cpu0.branchPred.committed_0::CallDirect      5477143      2.31%      6.90% # Number of branches finally committed  (Count)
system.cpu0.branchPred.committed_0::CallIndirect      5413840      2.28%      9.18% # Number of branches finally committed  (Count)
system.cpu0.branchPred.committed_0::DirectCond    200876145     84.65%     93.83% # Number of branches finally committed  (Count)
system.cpu0.branchPred.committed_0::DirectUncond      4513677      1.90%     95.73% # Number of branches finally committed  (Count)
system.cpu0.branchPred.committed_0::IndirectCond            0      0.00%     95.73% # Number of branches finally committed  (Count)
system.cpu0.branchPred.committed_0::IndirectUncond     10128753      4.27%    100.00% # Number of branches finally committed  (Count)
system.cpu0.branchPred.committed_0::total    237301170                       # Number of branches finally committed  (Count)
system.cpu0.branchPred.mispredicted_0::NoBranch          634      0.01%      0.01% # Number of committed branches that were mispredicted. (Count)
system.cpu0.branchPred.mispredicted_0::Return        41098      0.89%      0.91% # Number of committed branches that were mispredicted. (Count)
system.cpu0.branchPred.mispredicted_0::CallDirect       119218      2.59%      3.50% # Number of committed branches that were mispredicted. (Count)
system.cpu0.branchPred.mispredicted_0::CallIndirect       244556      5.32%      8.82% # Number of committed branches that were mispredicted. (Count)
system.cpu0.branchPred.mispredicted_0::DirectCond      3233684     70.37%     79.19% # Number of committed branches that were mispredicted. (Count)
system.cpu0.branchPred.mispredicted_0::DirectUncond        99927      2.17%     81.37% # Number of committed branches that were mispredicted. (Count)
system.cpu0.branchPred.mispredicted_0::IndirectCond            0      0.00%     81.37% # Number of committed branches that were mispredicted. (Count)
system.cpu0.branchPred.mispredicted_0::IndirectUncond       856304     18.63%    100.00% # Number of committed branches that were mispredicted. (Count)
system.cpu0.branchPred.mispredicted_0::total      4595421                       # Number of committed branches that were mispredicted. (Count)
system.cpu0.branchPred.targetProvider_0::NoTarget    191568123     72.05%     72.05% # The component providing the target for taken branches (Count)
system.cpu0.branchPred.targetProvider_0::BTB     47223002     17.76%     89.81% # The component providing the target for taken branches (Count)
system.cpu0.branchPred.targetProvider_0::RAS     12119325      4.56%     94.37% # The component providing the target for taken branches (Count)
system.cpu0.branchPred.targetProvider_0::Indirect     14978852      5.63%    100.00% # The component providing the target for taken branches (Count)
system.cpu0.branchPred.targetProvider_0::total    265889302                       # The component providing the target for taken branches (Count)
system.cpu0.branchPred.targetWrong_0::NoBranch      3307783     65.11%     65.11% # Number of branches where the target was incorrect or not available at prediction time. (Count)
system.cpu0.branchPred.targetWrong_0::Return      1154744     22.73%     87.83% # Number of branches where the target was incorrect or not available at prediction time. (Count)
system.cpu0.branchPred.targetWrong_0::CallDirect        53478      1.05%     88.89% # Number of branches where the target was incorrect or not available at prediction time. (Count)
system.cpu0.branchPred.targetWrong_0::CallIndirect       564664     11.11%    100.00% # Number of branches where the target was incorrect or not available at prediction time. (Count)
system.cpu0.branchPred.targetWrong_0::DirectCond            0      0.00%    100.00% # Number of branches where the target was incorrect or not available at prediction time. (Count)
system.cpu0.branchPred.targetWrong_0::DirectUncond            0      0.00%    100.00% # Number of branches where the target was incorrect or not available at prediction time. (Count)
system.cpu0.branchPred.targetWrong_0::IndirectCond            0      0.00%    100.00% # Number of branches where the target was incorrect or not available at prediction time. (Count)
system.cpu0.branchPred.targetWrong_0::IndirectUncond            0      0.00%    100.00% # Number of branches where the target was incorrect or not available at prediction time. (Count)
system.cpu0.branchPred.targetWrong_0::total      5080669                       # Number of branches where the target was incorrect or not available at prediction time. (Count)
system.cpu0.branchPred.condPredicted        224952806                       # Number of conditional branches predicted (Count)
system.cpu0.branchPred.condPredictedTaken     36439349                       # Number of conditional branches predicted as taken (Count)
system.cpu0.branchPred.condIncorrect          5089136                       # Number of conditional branches incorrect (Count)
system.cpu0.branchPred.predTakenBTBMiss        480483                       # Number of branches predicted taken but missed in BTB (Count)
system.cpu0.branchPred.NotTakenMispredicted      4016170                       # Number branches predicted 'not taken' but turned out to be taken (Count)
system.cpu0.branchPred.TakenMispredicted      1072966                       # Number branches predicted taken but are actually not taken (Count)
system.cpu0.branchPred.BTBLookups           265889302                       # Number of BTB lookups (Count)
system.cpu0.branchPred.BTBUpdates             2826061                       # Number of BTB updates (Count)
system.cpu0.branchPred.BTBHits              117703133                       # Number of BTB hits (Count)
system.cpu0.branchPred.BTBHitRatio           0.442677                       # BTB Hit Ratio (Ratio)
system.cpu0.branchPred.BTBMispredicted         579726                       # Number BTB mispredictions. No target found or target wrong (Count)
system.cpu0.branchPred.indirectLookups       16930953                       # Number of indirect predictor lookups. (Count)
system.cpu0.branchPred.indirectHits          14978852                       # Number of indirect target hits. (Count)
system.cpu0.branchPred.indirectMisses         1952101                       # Number of indirect misses. (Count)
system.cpu0.branchPred.indirectMispredicted            0                       # Number of mispredicted indirect branches. (Count)
system.cpu0.branchPred.btb.lookups::NoBranch         7088      0.00%      0.00% # Number of BTB lookups (Count)
system.cpu0.branchPred.btb.lookups::Return     12119325      4.56%      4.56% # Number of BTB lookups (Count)
system.cpu0.branchPred.btb.lookups::CallDirect      6421304      2.42%      6.98% # Number of BTB lookups (Count)
system.cpu0.branchPred.btb.lookups::CallIndirect      5959824      2.24%      9.22% # Number of BTB lookups (Count)
system.cpu0.branchPred.btb.lookups::DirectCond    224945745     84.60%     93.82% # Number of BTB lookups (Count)
system.cpu0.branchPred.btb.lookups::DirectUncond      5464882      2.06%     95.87% # Number of BTB lookups (Count)
system.cpu0.branchPred.btb.lookups::IndirectCond            0      0.00%     95.87% # Number of BTB lookups (Count)
system.cpu0.branchPred.btb.lookups::IndirectUncond     10971134      4.13%    100.00% # Number of BTB lookups (Count)
system.cpu0.branchPred.btb.lookups::total    265889302                       # Number of BTB lookups (Count)
system.cpu0.branchPred.btb.misses::NoBranch         1150      0.00%      0.00% # Number of BTB misses (Count)
system.cpu0.branchPred.btb.misses::Return     12117712      8.18%      8.18% # Number of BTB misses (Count)
system.cpu0.branchPred.btb.misses::CallDirect       164178      0.11%      8.29% # Number of BTB misses (Count)
system.cpu0.branchPred.btb.misses::CallIndirect      5803757      3.92%     12.21% # Number of BTB misses (Count)
system.cpu0.branchPred.btb.misses::DirectCond    118993942     80.30%     92.51% # Number of BTB misses (Count)
system.cpu0.branchPred.btb.misses::DirectUncond       134525      0.09%     92.60% # Number of BTB misses (Count)
system.cpu0.branchPred.btb.misses::IndirectCond            0      0.00%     92.60% # Number of BTB misses (Count)
system.cpu0.branchPred.btb.misses::IndirectUncond     10970905      7.40%    100.00% # Number of BTB misses (Count)
system.cpu0.branchPred.btb.misses::total    148186169                       # Number of BTB misses (Count)
system.cpu0.branchPred.btb.updates::NoBranch            0      0.00%      0.00% # Number of BTB updates (Count)
system.cpu0.branchPred.btb.updates::Return            0      0.00%      0.00% # Number of BTB updates (Count)
system.cpu0.branchPred.btb.updates::CallDirect       146922      5.20%      5.20% # Number of BTB updates (Count)
system.cpu0.branchPred.btb.updates::CallIndirect            0      0.00%      5.20% # Number of BTB updates (Count)
system.cpu0.branchPred.btb.updates::DirectCond      2528097     89.46%     94.66% # Number of BTB updates (Count)
system.cpu0.branchPred.btb.updates::DirectUncond       151042      5.34%    100.00% # Number of BTB updates (Count)
system.cpu0.branchPred.btb.updates::IndirectCond            0      0.00%    100.00% # Number of BTB updates (Count)
system.cpu0.branchPred.btb.updates::IndirectUncond            0      0.00%    100.00% # Number of BTB updates (Count)
system.cpu0.branchPred.btb.updates::total      2826061                       # Number of BTB updates (Count)
system.cpu0.branchPred.btb.mispredict::NoBranch            0      0.00%      0.00% # Number of BTB mispredictions. No target found or target wrong. (Count)
system.cpu0.branchPred.btb.mispredict::Return            0      0.00%      0.00% # Number of BTB mispredictions. No target found or target wrong. (Count)
system.cpu0.branchPred.btb.mispredict::CallDirect       146922      5.20%      5.20% # Number of BTB mispredictions. No target found or target wrong. (Count)
system.cpu0.branchPred.btb.mispredict::CallIndirect            0      0.00%      5.20% # Number of BTB mispredictions. No target found or target wrong. (Count)
system.cpu0.branchPred.btb.mispredict::DirectCond      2528097     89.46%     94.66% # Number of BTB mispredictions. No target found or target wrong. (Count)
system.cpu0.branchPred.btb.mispredict::DirectUncond       151042      5.34%    100.00% # Number of BTB mispredictions. No target found or target wrong. (Count)
system.cpu0.branchPred.btb.mispredict::IndirectCond            0      0.00%    100.00% # Number of BTB mispredictions. No target found or target wrong. (Count)
system.cpu0.branchPred.btb.mispredict::IndirectUncond            0      0.00%    100.00% # Number of BTB mispredictions. No target found or target wrong. (Count)
system.cpu0.branchPred.btb.mispredict::total      2826061                       # Number of BTB mispredictions. No target found or target wrong. (Count)
system.cpu0.branchPred.btb.power_state.pwrStateResidencyTicks::UNDEFINED 543392278000                       # Cumulative time (in ticks) in various power states (Tick)
system.cpu0.branchPred.indirectBranchPred.lookups     16930953                       # Number of lookups (Count)
system.cpu0.branchPred.indirectBranchPred.hits     14978852                       # Number of hits of a tag (Count)
system.cpu0.branchPred.indirectBranchPred.misses      1952101                       # Number of misses (Count)
system.cpu0.branchPred.indirectBranchPred.targetRecords      1135097                       # Number of targets that where recorded/installed in the cache (Count)
system.cpu0.branchPred.indirectBranchPred.indirectRecords     18066055                       # Number of indirect branches/calls recorded in the indirect hist (Count)
system.cpu0.branchPred.indirectBranchPred.speculativeOverflows            0                       # Number of times more than the allowed capacity for speculative branches/calls where in flight and destroy the path history (Count)
system.cpu0.branchPred.ras.pushes            13609475                       # Number of times a PC was pushed onto the RAS (Count)
system.cpu0.branchPred.ras.pops              13609470                       # Number of times a PC was poped from the RAS (Count)
system.cpu0.branchPred.ras.squashes           2718492                       # Number of times the stack operation was squashed due to wrong speculation. (Count)
system.cpu0.branchPred.ras.used              10890978                       # Number of times the RAS is the provider (Count)
system.cpu0.branchPred.ras.correct           10849880                       # Number of times the RAS is the provider and the prediction is correct (Count)
system.cpu0.branchPred.ras.incorrect            41098                       # Number of times the RAS is the provider and the prediction is wrong (Count)
system.cpu0.commit.commitSquashedInsts      176705119                       # The number of squashed insts skipped by commit (Count)
system.cpu0.commit.commitNonSpecStalls          14289                       # The number of times commit has been forced to stall to communicate backwards (Count)
system.cpu0.commit.branchMispredicts          4755152                       # The number of times a branch was mispredicted (Count)
system.cpu0.commit.numCommittedDist::samples   1014557318                       # Number of insts commited each cycle (Count)
system.cpu0.commit.numCommittedDist::mean     2.090613                       # Number of insts commited each cycle (Count)
system.cpu0.commit.numCommittedDist::stdev     2.910631                       # Number of insts commited each cycle (Count)
system.cpu0.commit.numCommittedDist::underflows            0      0.00%      0.00% # Number of insts commited each cycle (Count)
system.cpu0.commit.numCommittedDist::0      535128543     52.75%     52.75% # Number of insts commited each cycle (Count)
system.cpu0.commit.numCommittedDist::1       98347329      9.69%     62.44% # Number of insts commited each cycle (Count)
system.cpu0.commit.numCommittedDist::2       46327687      4.57%     67.00% # Number of insts commited each cycle (Count)
system.cpu0.commit.numCommittedDist::3       99831113      9.84%     76.84% # Number of insts commited each cycle (Count)
system.cpu0.commit.numCommittedDist::4       26152601      2.58%     79.42% # Number of insts commited each cycle (Count)
system.cpu0.commit.numCommittedDist::5       32734837      3.23%     82.65% # Number of insts commited each cycle (Count)
system.cpu0.commit.numCommittedDist::6       17210679      1.70%     84.35% # Number of insts commited each cycle (Count)
system.cpu0.commit.numCommittedDist::7       11594386      1.14%     85.49% # Number of insts commited each cycle (Count)
system.cpu0.commit.numCommittedDist::8      147230143     14.51%    100.00% # Number of insts commited each cycle (Count)
system.cpu0.commit.numCommittedDist::overflows            0      0.00%    100.00% # Number of insts commited each cycle (Count)
system.cpu0.commit.numCommittedDist::min_value            0                       # Number of insts commited each cycle (Count)
system.cpu0.commit.numCommittedDist::max_value            8                       # Number of insts commited each cycle (Count)
system.cpu0.commit.numCommittedDist::total   1014557318                       # Number of insts commited each cycle (Count)
system.cpu0.commit.amos                             0                       # Number of atomic instructions committed (Count)
system.cpu0.commit.membars                       9490                       # Number of memory barriers committed (Count)
system.cpu0.commit.functionCalls             10890983                       # Number of function calls committed. (Count)
system.cpu0.commit.committedInstType_0::No_OpClass     21997986      1.04%      1.04% # Class of committed instruction (Count)
system.cpu0.commit.committedInstType_0::IntAlu   1598697909     75.37%     76.41% # Class of committed instruction (Count)
system.cpu0.commit.committedInstType_0::IntMult       927134      0.04%     76.45% # Class of committed instruction (Count)
system.cpu0.commit.committedInstType_0::IntDiv       188328      0.01%     76.46% # Class of committed instruction (Count)
system.cpu0.commit.committedInstType_0::FloatAdd      1275199      0.06%     76.52% # Class of committed instruction (Count)
system.cpu0.commit.committedInstType_0::FloatCmp            0      0.00%     76.52% # Class of committed instruction (Count)
system.cpu0.commit.committedInstType_0::FloatCvt           64      0.00%     76.52% # Class of committed instruction (Count)
system.cpu0.commit.committedInstType_0::FloatMult            0      0.00%     76.52% # Class of committed instruction (Count)
system.cpu0.commit.committedInstType_0::FloatMultAcc            0      0.00%     76.52% # Class of committed instruction (Count)
system.cpu0.commit.committedInstType_0::FloatDiv            0      0.00%     76.52% # Class of committed instruction (Count)
system.cpu0.commit.committedInstType_0::FloatMisc            0      0.00%     76.52% # Class of committed instruction (Count)
system.cpu0.commit.committedInstType_0::FloatSqrt            0      0.00%     76.52% # Class of committed instruction (Count)
system.cpu0.commit.committedInstType_0::SimdAdd        29576      0.00%     76.52% # Class of committed instruction (Count)
system.cpu0.commit.committedInstType_0::SimdAddAcc            0      0.00%     76.52% # Class of committed instruction (Count)
system.cpu0.commit.committedInstType_0::SimdAlu       847701      0.04%     76.56% # Class of committed instruction (Count)
system.cpu0.commit.committedInstType_0::SimdCmp         7804      0.00%     76.56% # Class of committed instruction (Count)
system.cpu0.commit.committedInstType_0::SimdCvt       133502      0.01%     76.57% # Class of committed instruction (Count)
system.cpu0.commit.committedInstType_0::SimdMisc      2322799      0.11%     76.68% # Class of committed instruction (Count)
system.cpu0.commit.committedInstType_0::SimdMult            0      0.00%     76.68% # Class of committed instruction (Count)
system.cpu0.commit.committedInstType_0::SimdMultAcc            0      0.00%     76.68% # Class of committed instruction (Count)
system.cpu0.commit.committedInstType_0::SimdMatMultAcc            0      0.00%     76.68% # Class of committed instruction (Count)
system.cpu0.commit.committedInstType_0::SimdShift         4897      0.00%     76.68% # Class of committed instruction (Count)
system.cpu0.commit.committedInstType_0::SimdShiftAcc            0      0.00%     76.68% # Class of committed instruction (Count)
system.cpu0.commit.committedInstType_0::SimdDiv            0      0.00%     76.68% # Class of committed instruction (Count)
system.cpu0.commit.committedInstType_0::SimdSqrt            0      0.00%     76.68% # Class of committed instruction (Count)
system.cpu0.commit.committedInstType_0::SimdFloatAdd          558      0.00%     76.68% # Class of committed instruction (Count)
system.cpu0.commit.committedInstType_0::SimdFloatAlu            0      0.00%     76.68% # Class of committed instruction (Count)
system.cpu0.commit.committedInstType_0::SimdFloatCmp            1      0.00%     76.68% # Class of committed instruction (Count)
system.cpu0.commit.committedInstType_0::SimdFloatCvt         1222      0.00%     76.68% # Class of committed instruction (Count)
system.cpu0.commit.committedInstType_0::SimdFloatDiv           19      0.00%     76.68% # Class of committed instruction (Count)
system.cpu0.commit.committedInstType_0::SimdFloatMisc            0      0.00%     76.68% # Class of committed instruction (Count)
system.cpu0.commit.committedInstType_0::SimdFloatMult          519      0.00%     76.68% # Class of committed instruction (Count)
system.cpu0.commit.committedInstType_0::SimdFloatMultAcc            0      0.00%     76.68% # Class of committed instruction (Count)
system.cpu0.commit.committedInstType_0::SimdFloatMatMultAcc            0      0.00%     76.68% # Class of committed instruction (Count)
system.cpu0.commit.committedInstType_0::SimdFloatSqrt            1      0.00%     76.68% # Class of committed instruction (Count)
system.cpu0.commit.committedInstType_0::SimdReduceAdd            0      0.00%     76.68% # Class of committed instruction (Count)
system.cpu0.commit.committedInstType_0::SimdReduceAlu            0      0.00%     76.68% # Class of committed instruction (Count)
system.cpu0.commit.committedInstType_0::SimdReduceCmp            0      0.00%     76.68% # Class of committed instruction (Count)
system.cpu0.commit.committedInstType_0::SimdFloatReduceAdd            0      0.00%     76.68% # Class of committed instruction (Count)
system.cpu0.commit.committedInstType_0::SimdFloatReduceCmp            0      0.00%     76.68% # Class of committed instruction (Count)
system.cpu0.commit.committedInstType_0::SimdAes            0      0.00%     76.68% # Class of committed instruction (Count)
system.cpu0.commit.committedInstType_0::SimdAesMix            0      0.00%     76.68% # Class of committed instruction (Count)
system.cpu0.commit.committedInstType_0::SimdSha1Hash            0      0.00%     76.68% # Class of committed instruction (Count)
system.cpu0.commit.committedInstType_0::SimdSha1Hash2            0      0.00%     76.68% # Class of committed instruction (Count)
system.cpu0.commit.committedInstType_0::SimdSha256Hash            0      0.00%     76.68% # Class of committed instruction (Count)
system.cpu0.commit.committedInstType_0::SimdSha256Hash2            0      0.00%     76.68% # Class of committed instruction (Count)
system.cpu0.commit.committedInstType_0::SimdShaSigma2            0      0.00%     76.68% # Class of committed instruction (Count)
system.cpu0.commit.committedInstType_0::SimdShaSigma3            0      0.00%     76.68% # Class of committed instruction (Count)
system.cpu0.commit.committedInstType_0::SimdPredAlu            0      0.00%     76.68% # Class of committed instruction (Count)
system.cpu0.commit.committedInstType_0::Matrix            0      0.00%     76.68% # Class of committed instruction (Count)
system.cpu0.commit.committedInstType_0::MatrixMov            0      0.00%     76.68% # Class of committed instruction (Count)
system.cpu0.commit.committedInstType_0::MatrixOP            0      0.00%     76.68% # Class of committed instruction (Count)
system.cpu0.commit.committedInstType_0::MemRead    337638293     15.92%     92.60% # Class of committed instruction (Count)
system.cpu0.commit.committedInstType_0::MemWrite    151375938      7.14%     99.74% # Class of committed instruction (Count)
system.cpu0.commit.committedInstType_0::FloatMemRead      1033418      0.05%     99.78% # Class of committed instruction (Count)
system.cpu0.commit.committedInstType_0::FloatMemWrite      4563683      0.22%    100.00% # Class of committed instruction (Count)
system.cpu0.commit.committedInstType_0::IprAccess            0      0.00%    100.00% # Class of committed instruction (Count)
system.cpu0.commit.committedInstType_0::InstPrefetch            0      0.00%    100.00% # Class of committed instruction (Count)
system.cpu0.commit.committedInstType_0::VectorUnitStrideLoad            0      0.00%    100.00% # Class of committed instruction (Count)
system.cpu0.commit.committedInstType_0::VectorUnitStrideStore            0      0.00%    100.00% # Class of committed instruction (Count)
system.cpu0.commit.committedInstType_0::VectorUnitStrideMaskLoad            0      0.00%    100.00% # Class of committed instruction (Count)
system.cpu0.commit.committedInstType_0::VectorUnitStrideMaskStore            0      0.00%    100.00% # Class of committed instruction (Count)
system.cpu0.commit.committedInstType_0::VectorStridedLoad            0      0.00%    100.00% # Class of committed instruction (Count)
system.cpu0.commit.committedInstType_0::VectorStridedStore            0      0.00%    100.00% # Class of committed instruction (Count)
system.cpu0.commit.committedInstType_0::VectorIndexedLoad            0      0.00%    100.00% # Class of committed instruction (Count)
system.cpu0.commit.committedInstType_0::VectorIndexedStore            0      0.00%    100.00% # Class of committed instruction (Count)
system.cpu0.commit.committedInstType_0::VectorUnitStrideFaultOnlyFirstLoad            0      0.00%    100.00% # Class of committed instruction (Count)
system.cpu0.commit.committedInstType_0::VectorWholeRegisterLoad            0      0.00%    100.00% # Class of committed instruction (Count)
system.cpu0.commit.committedInstType_0::VectorWholeRegisterStore            0      0.00%    100.00% # Class of committed instruction (Count)
system.cpu0.commit.committedInstType_0::VectorIntegerArith            0      0.00%    100.00% # Class of committed instruction (Count)
system.cpu0.commit.committedInstType_0::VectorFloatArith            0      0.00%    100.00% # Class of committed instruction (Count)
system.cpu0.commit.committedInstType_0::VectorFloatConvert            0      0.00%    100.00% # Class of committed instruction (Count)
system.cpu0.commit.committedInstType_0::VectorIntegerReduce            0      0.00%    100.00% # Class of committed instruction (Count)
system.cpu0.commit.committedInstType_0::VectorFloatReduce            0      0.00%    100.00% # Class of committed instruction (Count)
system.cpu0.commit.committedInstType_0::VectorMisc            0      0.00%    100.00% # Class of committed instruction (Count)
system.cpu0.commit.committedInstType_0::VectorIntegerExtension            0      0.00%    100.00% # Class of committed instruction (Count)
system.cpu0.commit.committedInstType_0::VectorConfig            0      0.00%    100.00% # Class of committed instruction (Count)
system.cpu0.commit.committedInstType_0::total   2121046551                       # Class of committed instruction (Count)
system.cpu0.commit.commitEligibleSamples    147230143                       # number cycles where commit BW limit reached (Cycle)
system.cpu0.commitStats0.numInsts          1178373335                       # Number of instructions committed (thread level) (Count)
system.cpu0.commitStats0.numOps            2121046551                       # Number of ops (including micro ops) committed (thread level) (Count)
system.cpu0.commitStats0.numInstsNotNOP    1178373335                       # Number of instructions committed excluding NOPs or prefetches (Count)
system.cpu0.commitStats0.numOpsNotNOP      2121046551                       # Number of Ops (including micro ops) Simulated (Count)
system.cpu0.commitStats0.cpi                 0.922275                       # CPI: cycles per instruction (thread level) ((Cycle/Count))
system.cpu0.commitStats0.ipc                 1.084275                       # IPC: instructions per cycle (thread level) ((Count/Cycle))
system.cpu0.commitStats0.numMemRefs         494611332                       # Number of memory references committed (Count)
system.cpu0.commitStats0.numFpInsts          10993917                       # Number of float instructions (Count)
system.cpu0.commitStats0.numIntInsts       2094678133                       # Number of integer instructions (Count)
system.cpu0.commitStats0.numLoadInsts       338671711                       # Number of load instructions (Count)
system.cpu0.commitStats0.numStoreInsts      155939621                       # Number of store instructions (Count)
system.cpu0.commitStats0.numVecInsts                0                       # Number of vector instructions (Count)
system.cpu0.commitStats0.committedInstType::No_OpClass     21997986      1.04%      1.04% # Class of committed instruction. (Count)
system.cpu0.commitStats0.committedInstType::IntAlu   1598697909     75.37%     76.41% # Class of committed instruction. (Count)
system.cpu0.commitStats0.committedInstType::IntMult       927134      0.04%     76.45% # Class of committed instruction. (Count)
system.cpu0.commitStats0.committedInstType::IntDiv       188328      0.01%     76.46% # Class of committed instruction. (Count)
system.cpu0.commitStats0.committedInstType::FloatAdd      1275199      0.06%     76.52% # Class of committed instruction. (Count)
system.cpu0.commitStats0.committedInstType::FloatCmp            0      0.00%     76.52% # Class of committed instruction. (Count)
system.cpu0.commitStats0.committedInstType::FloatCvt           64      0.00%     76.52% # Class of committed instruction. (Count)
system.cpu0.commitStats0.committedInstType::FloatMult            0      0.00%     76.52% # Class of committed instruction. (Count)
system.cpu0.commitStats0.committedInstType::FloatMultAcc            0      0.00%     76.52% # Class of committed instruction. (Count)
system.cpu0.commitStats0.committedInstType::FloatDiv            0      0.00%     76.52% # Class of committed instruction. (Count)
system.cpu0.commitStats0.committedInstType::FloatMisc            0      0.00%     76.52% # Class of committed instruction. (Count)
system.cpu0.commitStats0.committedInstType::FloatSqrt            0      0.00%     76.52% # Class of committed instruction. (Count)
system.cpu0.commitStats0.committedInstType::SimdAdd        29576      0.00%     76.52% # Class of committed instruction. (Count)
system.cpu0.commitStats0.committedInstType::SimdAddAcc            0      0.00%     76.52% # Class of committed instruction. (Count)
system.cpu0.commitStats0.committedInstType::SimdAlu       847701      0.04%     76.56% # Class of committed instruction. (Count)
system.cpu0.commitStats0.committedInstType::SimdCmp         7804      0.00%     76.56% # Class of committed instruction. (Count)
system.cpu0.commitStats0.committedInstType::SimdCvt       133502      0.01%     76.57% # Class of committed instruction. (Count)
system.cpu0.commitStats0.committedInstType::SimdMisc      2322799      0.11%     76.68% # Class of committed instruction. (Count)
system.cpu0.commitStats0.committedInstType::SimdMult            0      0.00%     76.68% # Class of committed instruction. (Count)
system.cpu0.commitStats0.committedInstType::SimdMultAcc            0      0.00%     76.68% # Class of committed instruction. (Count)
system.cpu0.commitStats0.committedInstType::SimdMatMultAcc            0      0.00%     76.68% # Class of committed instruction. (Count)
system.cpu0.commitStats0.committedInstType::SimdShift         4897      0.00%     76.68% # Class of committed instruction. (Count)
system.cpu0.commitStats0.committedInstType::SimdShiftAcc            0      0.00%     76.68% # Class of committed instruction. (Count)
system.cpu0.commitStats0.committedInstType::SimdDiv            0      0.00%     76.68% # Class of committed instruction. (Count)
system.cpu0.commitStats0.committedInstType::SimdSqrt            0      0.00%     76.68% # Class of committed instruction. (Count)
system.cpu0.commitStats0.committedInstType::SimdFloatAdd          558      0.00%     76.68% # Class of committed instruction. (Count)
system.cpu0.commitStats0.committedInstType::SimdFloatAlu            0      0.00%     76.68% # Class of committed instruction. (Count)
system.cpu0.commitStats0.committedInstType::SimdFloatCmp            1      0.00%     76.68% # Class of committed instruction. (Count)
system.cpu0.commitStats0.committedInstType::SimdFloatCvt         1222      0.00%     76.68% # Class of committed instruction. (Count)
system.cpu0.commitStats0.committedInstType::SimdFloatDiv           19      0.00%     76.68% # Class of committed instruction. (Count)
system.cpu0.commitStats0.committedInstType::SimdFloatMisc            0      0.00%     76.68% # Class of committed instruction. (Count)
system.cpu0.commitStats0.committedInstType::SimdFloatMult          519      0.00%     76.68% # Class of committed instruction. (Count)
system.cpu0.commitStats0.committedInstType::SimdFloatMultAcc            0      0.00%     76.68% # Class of committed instruction. (Count)
system.cpu0.commitStats0.committedInstType::SimdFloatMatMultAcc            0      0.00%     76.68% # Class of committed instruction. (Count)
system.cpu0.commitStats0.committedInstType::SimdFloatSqrt            1      0.00%     76.68% # Class of committed instruction. (Count)
system.cpu0.commitStats0.committedInstType::SimdReduceAdd            0      0.00%     76.68% # Class of committed instruction. (Count)
system.cpu0.commitStats0.committedInstType::SimdReduceAlu            0      0.00%     76.68% # Class of committed instruction. (Count)
system.cpu0.commitStats0.committedInstType::SimdReduceCmp            0      0.00%     76.68% # Class of committed instruction. (Count)
system.cpu0.commitStats0.committedInstType::SimdFloatReduceAdd            0      0.00%     76.68% # Class of committed instruction. (Count)
system.cpu0.commitStats0.committedInstType::SimdFloatReduceCmp            0      0.00%     76.68% # Class of committed instruction. (Count)
system.cpu0.commitStats0.committedInstType::SimdAes            0      0.00%     76.68% # Class of committed instruction. (Count)
system.cpu0.commitStats0.committedInstType::SimdAesMix            0      0.00%     76.68% # Class of committed instruction. (Count)
system.cpu0.commitStats0.committedInstType::SimdSha1Hash            0      0.00%     76.68% # Class of committed instruction. (Count)
system.cpu0.commitStats0.committedInstType::SimdSha1Hash2            0      0.00%     76.68% # Class of committed instruction. (Count)
system.cpu0.commitStats0.committedInstType::SimdSha256Hash            0      0.00%     76.68% # Class of committed instruction. (Count)
system.cpu0.commitStats0.committedInstType::SimdSha256Hash2            0      0.00%     76.68% # Class of committed instruction. (Count)
system.cpu0.commitStats0.committedInstType::SimdShaSigma2            0      0.00%     76.68% # Class of committed instruction. (Count)
system.cpu0.commitStats0.committedInstType::SimdShaSigma3            0      0.00%     76.68% # Class of committed instruction. (Count)
system.cpu0.commitStats0.committedInstType::SimdPredAlu            0      0.00%     76.68% # Class of committed instruction. (Count)
system.cpu0.commitStats0.committedInstType::Matrix            0      0.00%     76.68% # Class of committed instruction. (Count)
system.cpu0.commitStats0.committedInstType::MatrixMov            0      0.00%     76.68% # Class of committed instruction. (Count)
system.cpu0.commitStats0.committedInstType::MatrixOP            0      0.00%     76.68% # Class of committed instruction. (Count)
system.cpu0.commitStats0.committedInstType::MemRead    337638293     15.92%     92.60% # Class of committed instruction. (Count)
system.cpu0.commitStats0.committedInstType::MemWrite    151375938      7.14%     99.74% # Class of committed instruction. (Count)
system.cpu0.commitStats0.committedInstType::FloatMemRead      1033418      0.05%     99.78% # Class of committed instruction. (Count)
system.cpu0.commitStats0.committedInstType::FloatMemWrite      4563683      0.22%    100.00% # Class of committed instruction. (Count)
system.cpu0.commitStats0.committedInstType::IprAccess            0      0.00%    100.00% # Class of committed instruction. (Count)
system.cpu0.commitStats0.committedInstType::InstPrefetch            0      0.00%    100.00% # Class of committed instruction. (Count)
system.cpu0.commitStats0.committedInstType::VectorUnitStrideLoad            0      0.00%    100.00% # Class of committed instruction. (Count)
system.cpu0.commitStats0.committedInstType::VectorUnitStrideStore            0      0.00%    100.00% # Class of committed instruction. (Count)
system.cpu0.commitStats0.committedInstType::VectorUnitStrideMaskLoad            0      0.00%    100.00% # Class of committed instruction. (Count)
system.cpu0.commitStats0.committedInstType::VectorUnitStrideMaskStore            0      0.00%    100.00% # Class of committed instruction. (Count)
system.cpu0.commitStats0.committedInstType::VectorStridedLoad            0      0.00%    100.00% # Class of committed instruction. (Count)
system.cpu0.commitStats0.committedInstType::VectorStridedStore            0      0.00%    100.00% # Class of committed instruction. (Count)
system.cpu0.commitStats0.committedInstType::VectorIndexedLoad            0      0.00%    100.00% # Class of committed instruction. (Count)
system.cpu0.commitStats0.committedInstType::VectorIndexedStore            0      0.00%    100.00% # Class of committed instruction. (Count)
system.cpu0.commitStats0.committedInstType::VectorUnitStrideFaultOnlyFirstLoad            0      0.00%    100.00% # Class of committed instruction. (Count)
system.cpu0.commitStats0.committedInstType::VectorWholeRegisterLoad            0      0.00%    100.00% # Class of committed instruction. (Count)
system.cpu0.commitStats0.committedInstType::VectorWholeRegisterStore            0      0.00%    100.00% # Class of committed instruction. (Count)
system.cpu0.commitStats0.committedInstType::VectorIntegerArith            0      0.00%    100.00% # Class of committed instruction. (Count)
system.cpu0.commitStats0.committedInstType::VectorFloatArith            0      0.00%    100.00% # Class of committed instruction. (Count)
system.cpu0.commitStats0.committedInstType::VectorFloatConvert            0      0.00%    100.00% # Class of committed instruction. (Count)
system.cpu0.commitStats0.committedInstType::VectorIntegerReduce            0      0.00%    100.00% # Class of committed instruction. (Count)
system.cpu0.commitStats0.committedInstType::VectorFloatReduce            0      0.00%    100.00% # Class of committed instruction. (Count)
system.cpu0.commitStats0.committedInstType::VectorMisc            0      0.00%    100.00% # Class of committed instruction. (Count)
system.cpu0.commitStats0.committedInstType::VectorIntegerExtension            0      0.00%    100.00% # Class of committed instruction. (Count)
system.cpu0.commitStats0.committedInstType::VectorConfig            0      0.00%    100.00% # Class of committed instruction. (Count)
system.cpu0.commitStats0.committedInstType::total   2121046551                       # Class of committed instruction. (Count)
system.cpu0.commitStats0.committedControl::IsControl    237301170                       # Class of control type instructions committed (Count)
system.cpu0.commitStats0.committedControl::IsDirectControl    210866965                       # Class of control type instructions committed (Count)
system.cpu0.commitStats0.committedControl::IsIndirectControl     26433571                       # Class of control type instructions committed (Count)
system.cpu0.commitStats0.committedControl::IsCondControl    200876145                       # Class of control type instructions committed (Count)
system.cpu0.commitStats0.committedControl::IsUncondControl     36424391                       # Class of control type instructions committed (Count)
system.cpu0.commitStats0.committedControl::IsCall     10890983                       # Class of control type instructions committed (Count)
system.cpu0.commitStats0.committedControl::IsReturn     10890978                       # Class of control type instructions committed (Count)
system.cpu0.dcache.demandHits::cpu0.data    478000876                       # number of demand (read+write) hits (Count)
system.cpu0.dcache.demandHits::total        478000876                       # number of demand (read+write) hits (Count)
system.cpu0.dcache.overallHits::cpu0.data    478001919                       # number of overall hits (Count)
system.cpu0.dcache.overallHits::total       478001919                       # number of overall hits (Count)
system.cpu0.dcache.demandMisses::cpu0.data      7288024                       # number of demand (read+write) misses (Count)
system.cpu0.dcache.demandMisses::total        7288024                       # number of demand (read+write) misses (Count)
system.cpu0.dcache.overallMisses::cpu0.data      7290220                       # number of overall misses (Count)
system.cpu0.dcache.overallMisses::total       7290220                       # number of overall misses (Count)
system.cpu0.dcache.demandMissLatency::cpu0.data 209710868777                       # number of demand (read+write) miss ticks (Tick)
system.cpu0.dcache.demandMissLatency::total 209710868777                       # number of demand (read+write) miss ticks (Tick)
system.cpu0.dcache.overallMissLatency::cpu0.data 209710868777                       # number of overall miss ticks (Tick)
system.cpu0.dcache.overallMissLatency::total 209710868777                       # number of overall miss ticks (Tick)
system.cpu0.dcache.demandAccesses::cpu0.data    485288900                       # number of demand (read+write) accesses (Count)
system.cpu0.dcache.demandAccesses::total    485288900                       # number of demand (read+write) accesses (Count)
system.cpu0.dcache.overallAccesses::cpu0.data    485292139                       # number of overall (read+write) accesses (Count)
system.cpu0.dcache.overallAccesses::total    485292139                       # number of overall (read+write) accesses (Count)
system.cpu0.dcache.demandMissRate::cpu0.data     0.015018                       # miss rate for demand accesses (Ratio)
[...]
system.mem_ctrl.dram.numReads::cpu0.inst       288650                       # Number of read requests responded to by this memory (Count)
system.mem_ctrl.dram.numReads::cpu0.data      1099297                       # Number of read requests responded to by this memory (Count)
system.mem_ctrl.dram.numReads::total          1387947                       # Number of read requests responded to by this memory (Count)
system.mem_ctrl.dram.numWrites::writebacks       589172                       # Number of write requests responded to by this memory (Count)
system.mem_ctrl.dram.numWrites::total          589172                       # Number of write requests responded to by this memory (Count)
system.mem_ctrl.dram.bwRead::cpu0.inst       33996803                       # Total read bandwidth from this memory ((Byte/Second))
system.mem_ctrl.dram.bwRead::cpu0.data      129473699                       # Total read bandwidth from this memory ((Byte/Second))
system.mem_ctrl.dram.bwRead::total          163470501                       # Total read bandwidth from this memory ((Byte/Second))
system.mem_ctrl.dram.bwInstRead::cpu0.inst     33996803                       # Instruction read bandwidth from this memory ((Byte/Second))
system.mem_ctrl.dram.bwInstRead::total       33996803                       # Instruction read bandwidth from this memory ((Byte/Second))
system.mem_ctrl.dram.bwWrite::writebacks     69391873                       # Write bandwidth from this memory ((Byte/Second))
system.mem_ctrl.dram.bwWrite::total          69391873                       # Write bandwidth from this memory ((Byte/Second))
system.mem_ctrl.dram.bwTotal::writebacks     69391873                       # Total bandwidth to/from this memory ((Byte/Second))
system.mem_ctrl.dram.bwTotal::cpu0.inst      33996803                       # Total bandwidth to/from this memory ((Byte/Second))
system.mem_ctrl.dram.bwTotal::cpu0.data     129473699                       # Total bandwidth to/from this memory ((Byte/Second))
system.mem_ctrl.dram.bwTotal::total         232862374                       # Total bandwidth to/from this memory ((Byte/Second))
system.mem_ctrl.dram.readBursts               1380594                       # Number of DRAM read bursts (Count)
system.mem_ctrl.dram.writeBursts               589052                       # Number of DRAM write bursts (Count)
system.mem_ctrl.dram.perBankRdBursts::0         95263                       # Per bank write bursts (Count)
system.mem_ctrl.dram.perBankRdBursts::1         97319                       # Per bank write bursts (Count)
system.mem_ctrl.dram.perBankRdBursts::2         67569                       # Per bank write bursts (Count)
system.mem_ctrl.dram.perBankRdBursts::3         91369                       # Per bank write bursts (Count)
system.mem_ctrl.dram.perBankRdBursts::4         88233                       # Per bank write bursts (Count)
system.mem_ctrl.dram.perBankRdBursts::5         92831                       # Per bank write bursts (Count)
system.mem_ctrl.dram.perBankRdBursts::6         70524                       # Per bank write bursts (Count)
system.mem_ctrl.dram.perBankRdBursts::7         81534                       # Per bank write bursts (Count)
system.mem_ctrl.dram.perBankRdBursts::8         96680                       # Per bank write bursts (Count)
system.mem_ctrl.dram.perBankRdBursts::9         86959                       # Per bank write bursts (Count)
system.mem_ctrl.dram.perBankRdBursts::10        77218                       # Per bank write bursts (Count)
system.mem_ctrl.dram.perBankRdBursts::11        95608                       # Per bank write bursts (Count)
system.mem_ctrl.dram.perBankRdBursts::12       103812                       # Per bank write bursts (Count)
system.mem_ctrl.dram.perBankRdBursts::13        81678                       # Per bank write bursts (Count)
system.mem_ctrl.dram.perBankRdBursts::14        78440                       # Per bank write bursts (Count)
system.mem_ctrl.dram.perBankRdBursts::15        75557                       # Per bank write bursts (Count)
system.mem_ctrl.dram.perBankWrBursts::0         36825                       # Per bank write bursts (Count)
system.mem_ctrl.dram.perBankWrBursts::1         39951                       # Per bank write bursts (Count)
system.mem_ctrl.dram.perBankWrBursts::2         27066                       # Per bank write bursts (Count)
system.mem_ctrl.dram.perBankWrBursts::3         44470                       # Per bank write bursts (Count)
system.mem_ctrl.dram.perBankWrBursts::4         37057                       # Per bank write bursts (Count)
system.mem_ctrl.dram.perBankWrBursts::5         45270                       # Per bank write bursts (Count)
system.mem_ctrl.dram.perBankWrBursts::6         29165                       # Per bank write bursts (Count)
system.mem_ctrl.dram.perBankWrBursts::7         26015                       # Per bank write bursts (Count)
system.mem_ctrl.dram.perBankWrBursts::8         39073                       # Per bank write bursts (Count)
system.mem_ctrl.dram.perBankWrBursts::9         46718                       # Per bank write bursts (Count)
system.mem_ctrl.dram.perBankWrBursts::10        25596                       # Per bank write bursts (Count)
system.mem_ctrl.dram.perBankWrBursts::11        48830                       # Per bank write bursts (Count)
system.mem_ctrl.dram.perBankWrBursts::12        43384                       # Per bank write bursts (Count)
system.mem_ctrl.dram.perBankWrBursts::13        36490                       # Per bank write bursts (Count)
system.mem_ctrl.dram.perBankWrBursts::14        35194                       # Per bank write bursts (Count)
system.mem_ctrl.dram.perBankWrBursts::15        27948                       # Per bank write bursts (Count)
system.mem_ctrl.dram.totQLat              21077335250                       # Total ticks spent queuing (Tick)
system.mem_ctrl.dram.totBusLat             6902970000                       # Total ticks spent in databus transfers (Tick)
system.mem_ctrl.dram.totMemAccLat         46963472750                       # Total ticks spent from burst creation until serviced by the DRAM (Tick)
system.mem_ctrl.dram.avgQLat                 15266.86                       # Average queueing delay per DRAM burst ((Tick/Count))
system.mem_ctrl.dram.avgBusLat                5000.00                       # Average bus latency per DRAM burst ((Tick/Count))
system.mem_ctrl.dram.avgMemAccLat            34016.86                       # Average memory access latency per DRAM burst ((Tick/Count))
system.mem_ctrl.dram.readRowHits               888485                       # Number of row buffer hits during reads (Count)
system.mem_ctrl.dram.writeRowHits              303110                       # Number of row buffer hits during writes (Count)
system.mem_ctrl.dram.readRowHitRate             64.36                       # Row buffer hit rate for reads (Ratio)
system.mem_ctrl.dram.writeRowHitRate            51.46                       # Row buffer hit rate for writes (Ratio)
system.mem_ctrl.dram.bytesPerActivate::samples       778038                       # Bytes accessed per row activation (Byte)
system.mem_ctrl.dram.bytesPerActivate::mean   162.017711                       # Bytes accessed per row activation (Byte)
system.mem_ctrl.dram.bytesPerActivate::gmean   114.185191                       # Bytes accessed per row activation (Byte)
system.mem_ctrl.dram.bytesPerActivate::stdev   184.239382                       # Bytes accessed per row activation (Byte)
system.mem_ctrl.dram.bytesPerActivate::0-127       409111     52.58%     52.58% # Bytes accessed per row activation (Byte)
system.mem_ctrl.dram.bytesPerActivate::128-255       229082     29.44%     82.03% # Bytes accessed per row activation (Byte)
system.mem_ctrl.dram.bytesPerActivate::256-383        66905      8.60%     90.63% # Bytes accessed per row activation (Byte)
system.mem_ctrl.dram.bytesPerActivate::384-511        25757      3.31%     93.94% # Bytes accessed per row activation (Byte)
system.mem_ctrl.dram.bytesPerActivate::512-639        13922      1.79%     95.73% # Bytes accessed per row activation (Byte)
system.mem_ctrl.dram.bytesPerActivate::640-767         8375      1.08%     96.80% # Bytes accessed per row activation (Byte)
system.mem_ctrl.dram.bytesPerActivate::768-895         6370      0.82%     97.62% # Bytes accessed per row activation (Byte)
system.mem_ctrl.dram.bytesPerActivate::896-1023         5627      0.72%     98.34% # Bytes accessed per row activation (Byte)
system.mem_ctrl.dram.bytesPerActivate::1024-1151        12889      1.66%    100.00% # Bytes accessed per row activation (Byte)
system.mem_ctrl.dram.bytesPerActivate::total       778038                       # Bytes accessed per row activation (Byte)
system.mem_ctrl.dram.dramBytesRead           88358016                       # Total bytes read (Byte)
system.mem_ctrl.dram.dramBytesWritten        37699328                       # Total bytes written (Byte)
system.mem_ctrl.dram.avgRdBW               162.604475                       # Average DRAM read bandwidth in MiBytes/s ((Byte/Second))
system.mem_ctrl.dram.avgWrBW                69.377740                       # Average DRAM write bandwidth in MiBytes/s ((Byte/Second))
system.mem_ctrl.dram.peakBW                  12800.00                       # Theoretical peak bandwidth in MiByte/s ((Byte/Second))
system.mem_ctrl.dram.busUtil                     1.81                       # Data bus utilization in percentage (Ratio)
system.mem_ctrl.dram.busUtilRead                 1.27                       # Data bus utilization in percentage for reads (Ratio)
system.mem_ctrl.dram.busUtilWrite                0.54                       # Data bus utilization in percentage for writes (Ratio)
system.mem_ctrl.dram.pageHitRate                60.50                       # Row buffer hit rate, read and write combined (Ratio)
system.mem_ctrl.dram.power_state.pwrStateResidencyTicks::UNDEFINED 543392278000                       # Cumulative time (in ticks) in various power states (Tick)
system.mem_ctrl.dram.rank0.actEnergy       2814023940                       # Energy for activate commands per rank (pJ) (Joule)
system.mem_ctrl.dram.rank0.preEnergy       1495666425                       # Energy for precharge commands per rank (pJ) (Joule)
system.mem_ctrl.dram.rank0.readEnergy      4888343880                       # Energy for read commands per rank (pJ) (Joule)
system.mem_ctrl.dram.rank0.writeEnergy     1491975180                       # Energy for write commands per rank (pJ) (Joule)
system.mem_ctrl.dram.rank0.refreshEnergy 42894496320.000008                       # Energy for refresh commands per rank (pJ) (Joule)
system.mem_ctrl.dram.rank0.actBackEnergy 111979058730                       # Energy for active background per rank (pJ) (Joule)
system.mem_ctrl.dram.rank0.preBackEnergy 114364480320                       # Energy for precharge background per rank (pJ) (Joule)
system.mem_ctrl.dram.rank0.actPowerDownEnergy            0                       # Energy for active power-down per rank (pJ) (Joule)
system.mem_ctrl.dram.rank0.prePowerDownEnergy            0                       # Energy for precharge power-down per rank (pJ) (Joule)
system.mem_ctrl.dram.rank0.selfRefreshEnergy            0                       # Energy for self refresh per rank (pJ) (Joule)
system.mem_ctrl.dram.rank0.totalEnergy   279928044795                       # Total energy per rank (pJ) (Joule)
system.mem_ctrl.dram.rank0.averagePower    515.149103                       # Core power per rank (mW) (Watt)
system.mem_ctrl.dram.rank0.totalIdleTime            0                       # Total Idle time Per DRAM Rank (Tick)
system.mem_ctrl.dram.rank0.pwrStateTime::IDLE 296234258250                       # Time in different power states (Tick)
system.mem_ctrl.dram.rank0.pwrStateTime::REF  18144880000                       # Time in different power states (Tick)
system.mem_ctrl.dram.rank0.pwrStateTime::SREF            0                       # Time in different power states (Tick)
system.mem_ctrl.dram.rank0.pwrStateTime::PRE_PDN            0                       # Time in different power states (Tick)
system.mem_ctrl.dram.rank0.pwrStateTime::ACT 229013139750                       # Time in different power states (Tick)
system.mem_ctrl.dram.rank0.pwrStateTime::ACT_PDN            0                       # Time in different power states (Tick)
system.mem_ctrl.dram.rank1.actEnergy       2741260200                       # Energy for activate commands per rank (pJ) (Joule)
system.mem_ctrl.dram.rank1.preEnergy       1456987785                       # Energy for precharge commands per rank (pJ) (Joule)
system.mem_ctrl.dram.rank1.readEnergy      4969097280                       # Energy for read commands per rank (pJ) (Joule)
system.mem_ctrl.dram.rank1.writeEnergy     1582876260                       # Energy for write commands per rank (pJ) (Joule)
system.mem_ctrl.dram.rank1.refreshEnergy 42894496320.000008                       # Energy for refresh commands per rank (pJ) (Joule)
system.mem_ctrl.dram.rank1.actBackEnergy 107542194690                       # Energy for active background per rank (pJ) (Joule)
system.mem_ctrl.dram.rank1.preBackEnergy 118100786880                       # Energy for precharge background per rank (pJ) (Joule)
system.mem_ctrl.dram.rank1.actPowerDownEnergy            0                       # Energy for active power-down per rank (pJ) (Joule)
system.mem_ctrl.dram.rank1.prePowerDownEnergy            0                       # Energy for precharge power-down per rank (pJ) (Joule)
system.mem_ctrl.dram.rank1.selfRefreshEnergy            0                       # Energy for self refresh per rank (pJ) (Joule)
system.mem_ctrl.dram.rank1.totalEnergy   279287699415                       # Total energy per rank (pJ) (Joule)
system.mem_ctrl.dram.rank1.averagePower    513.970681                       # Core power per rank (mW) (Watt)
system.mem_ctrl.dram.rank1.totalIdleTime            0                       # Total Idle time Per DRAM Rank (Tick)
system.mem_ctrl.dram.rank1.pwrStateTime::IDLE 305982070250                       # Time in different power states (Tick)
system.mem_ctrl.dram.rank1.pwrStateTime::REF  18144880000                       # Time in different power states (Tick)
system.mem_ctrl.dram.rank1.pwrStateTime::SREF            0                       # Time in different power states (Tick)
system.mem_ctrl.dram.rank1.pwrStateTime::PRE_PDN            0                       # Time in different power states (Tick)
system.mem_ctrl.dram.rank1.pwrStateTime::ACT 219265327750                       # Time in different power states (Tick)
system.mem_ctrl.dram.rank1.pwrStateTime::ACT_PDN            0                       # Time in different power states (Tick)
system.mem_ctrl.power_state.pwrStateResidencyTicks::UNDEFINED 543392278000                       # Cumulative time (in ticks) in various power states (Tick)
system.membus.transDist::ReadResp             1133473                       # Transaction distribution (Count)
system.membus.transDist::WritebackDirty        589172                       # Transaction distribution (Count)
system.membus.transDist::CleanEvict            794028                       # Transaction distribution (Count)
system.membus.transDist::UpgradeReq               557                       # Transaction distribution (Count)
system.membus.transDist::ReadExReq             254476                       # Transaction distribution (Count)
system.membus.transDist::ReadExResp            254474                       # Transaction distribution (Count)
system.membus.transDist::ReadSharedReq        1133473                       # Transaction distribution (Count)
system.membus.pktCount_system.l2cache.mem_side_port::system.mem_ctrl.port      4159653                       # Packet count per connected requestor and responder (Count)
system.membus.pktCount_system.l2cache.mem_side_port::total      4159653                       # Packet count per connected requestor and responder (Count)
system.membus.pktCount::total                 4159653                       # Packet count per connected requestor and responder (Count)
system.membus.pktSize_system.l2cache.mem_side_port::system.mem_ctrl.port    126535616                       # Cumulative packet size per connected requestor and responder (Byte)
system.membus.pktSize_system.l2cache.mem_side_port::total    126535616                       # Cumulative packet size per connected requestor and responder (Byte)
system.membus.pktSize::total                126535616                       # Cumulative packet size per connected requestor and responder (Byte)
system.membus.snoops                               94                       # Total snoops (Count)
system.membus.snoopTraffic                          0                       # Total snoop traffic (Byte)
system.membus.snoopFanout::samples            1388506                       # Request fanout histogram (Count)
system.membus.snoopFanout::mean                     0                       # Request fanout histogram (Count)
system.membus.snoopFanout::stdev                    0                       # Request fanout histogram (Count)
system.membus.snoopFanout::underflows               0      0.00%      0.00% # Request fanout histogram (Count)
system.membus.snoopFanout::0                  1388506    100.00%    100.00% # Request fanout histogram (Count)
system.membus.snoopFanout::1                        0      0.00%    100.00% # Request fanout histogram (Count)
system.membus.snoopFanout::overflows                0      0.00%    100.00% # Request fanout histogram (Count)
system.membus.snoopFanout::min_value                0                       # Request fanout histogram (Count)
system.membus.snoopFanout::max_value                0                       # Request fanout histogram (Count)
system.membus.snoopFanout::total              1388506                       # Request fanout histogram (Count)
system.membus.power_state.pwrStateResidencyTicks::UNDEFINED 543392278000                       # Cumulative time (in ticks) in various power states (Tick)
system.membus.reqLayer8.occupancy          2564150000                       # Layer occupancy (ticks) (Tick)
system.membus.reqLayer8.utilization               0.0                       # Layer utilization (Ratio)
system.membus.respLayer0.occupancy         3742720750                       # Layer occupancy (ticks) (Tick)
system.membus.respLayer0.utilization              0.0                       # Layer utilization (Ratio)
system.membus.snoop_filter.totRequests        2771706                       # Total number of requests made to the snoop filter. (Count)
system.membus.snoop_filter.hitSingleRequests      1384408                       # Number of requests hitting in the snoop filter with a single holder of the requested data. (Count)
system.membus.snoop_filter.hitMultiRequests            0                       # Number of requests hitting in the snoop filter with multiple (>1) holders of the requested data. (Count)
system.membus.snoop_filter.totSnoops                0                       # Total number of snoops made to the snoop filter. (Count)
system.membus.snoop_filter.hitSingleSnoops            0                       # Number of snoops hitting in the snoop filter with a single holder of the requested data. (Count)
system.membus.snoop_filter.hitMultiSnoops            0                       # Number of snoops hitting in the snoop filter with multiple (>1) holders of the requested data. (Count)
system.workload.inst.arm                            0                       # number of arm instructions executed (Count)
system.workload.inst.quiesce                        0                       # number of quiesce instructions executed (Count)

---------- End Simulation Statistics   ----------
