
---------- Begin Simulation Statistics ----------
simSeconds                                   0.134363                       # Number of seconds simulated (Second)
simTicks                                 134362734028                       # Number of ticks simulated (Tick)
finalTick                                134362734028                       # Number of ticks from beginning of simulation (restored from checkpoints and never reset) (Tick)
simFreq                                  1000000000000                       # The number of ticks per simulated second ((Tick/Second))
hostSeconds                                   1663.10                       # Real time elapsed on the host (Second)
hostTickRate                                 80790502                       # The number of ticks simulated per host second (ticks/s) ((Tick/Second))
hostMemory                                    8960524                       # Number of bytes of host memory used (Byte)
simInsts                                    137140643                       # Number of instructions simulated (Count)
simOps                                      254920349                       # Number of ops (including micro ops) simulated (Count)
hostInstRate                                    82461                       # Simulator instruction rate (inst/s) ((Count/Second))
hostOpRate                                     153280                       # Simulator op (including micro ops) rate (op/s) ((Count/Second))
system.clk_domain.clock                           571                       # Clock period in ticks (Tick)
system.clk_domain.voltage_domain.voltage     1.050000                       # Voltage in Volts (Volt)
system.cpu0.numCycles                       235311269                       # Number of cpu cycles simulated (Cycle)
system.cpu0.cpi                              1.715839                       # CPI: cycles per instruction (core level) ((Cycle/Count))
system.cpu0.ipc                              0.582805                       # IPC: instructions per cycle (core level) ((Count/Cycle))
system.cpu0.numWorkItemsStarted                     0                       # Number of work items this cpu started (Count)
system.cpu0.numWorkItemsCompleted                   0                       # Number of work items this cpu completed (Count)
system.cpu0.instsAdded                      297914877                       # Number of instructions added to the IQ (excludes non-spec) (Count)
system.cpu0.nonSpecInstsAdded                   21654                       # Number of non-speculative instructions added to the IQ (Count)
system.cpu0.instsIssued                     285555292                       # Number of instructions issued (Count)
system.cpu0.squashedInstsIssued                300059                       # Number of squashed instructions issued (Count)
system.cpu0.squashedInstsExamined            43016176                       # Number of squashed instructions iterated over during squash; mainly for profiling (Count)
system.cpu0.squashedOperandsExamined         72887417                       # Number of squashed operands that are examined and possibly removed from graph (Count)
system.cpu0.squashedNonSpecRemoved               8088                       # Number of squashed non-spec instructions that were removed (Count)
system.cpu0.numIssuedDist::samples          214839529                       # Number of insts issued each cycle (Count)
system.cpu0.numIssuedDist::mean              1.329156                       # Number of insts issued each cycle (Count)
system.cpu0.numIssuedDist::stdev             2.151584                       # Number of insts issued each cycle (Count)
system.cpu0.numIssuedDist::underflows               0      0.00%      0.00% # Number of insts issued each cycle (Count)
system.cpu0.numIssuedDist::0                136085522     63.34%     63.34% # Number of insts issued each cycle (Count)
system.cpu0.numIssuedDist::1                 14948964      6.96%     70.30% # Number of insts issued each cycle (Count)
system.cpu0.numIssuedDist::2                 14351957      6.68%     76.98% # Number of insts issued each cycle (Count)
system.cpu0.numIssuedDist::3                 12008126      5.59%     82.57% # Number of insts issued each cycle (Count)
system.cpu0.numIssuedDist::4                 10903414      5.08%     87.65% # Number of insts issued each cycle (Count)
system.cpu0.numIssuedDist::5                  8967232      4.17%     91.82% # Number of insts issued each cycle (Count)
system.cpu0.numIssuedDist::6                  8889940      4.14%     95.96% # Number of insts issued each cycle (Count)
system.cpu0.numIssuedDist::7                  5386412      2.51%     98.46% # Number of insts issued each cycle (Count)
system.cpu0.numIssuedDist::8                  3297962      1.54%    100.00% # Number of insts issued each cycle (Count)
system.cpu0.numIssuedDist::overflows                0      0.00%    100.00% # Number of insts issued each cycle (Count)
system.cpu0.numIssuedDist::min_value                0                       # Number of insts issued each cycle (Count)
system.cpu0.numIssuedDist::max_value                8                       # Number of insts issued each cycle (Count)
system.cpu0.numIssuedDist::total            214839529                       # Number of insts issued each cycle (Count)
system.cpu0.statFuBusy::No_OpClass                  0      0.00%      0.00% # attempts to use FU when none available (Count)
system.cpu0.statFuBusy::IntAlu                3509009     83.16%     83.16% # attempts to use FU when none available (Count)
system.cpu0.statFuBusy::IntMult                     0      0.00%     83.16% # attempts to use FU when none available (Count)
system.cpu0.statFuBusy::IntDiv                      0      0.00%     83.16% # attempts to use FU when none available (Count)
system.cpu0.statFuBusy::FloatAdd                    0      0.00%     83.16% # attempts to use FU when none available (Count)
system.cpu0.statFuBusy::FloatCmp                    0      0.00%     83.16% # attempts to use FU when none available (Count)
system.cpu0.statFuBusy::FloatCvt                    0      0.00%     83.16% # attempts to use FU when none available (Count)
system.cpu0.statFuBusy::FloatMult                   0      0.00%     83.16% # attempts to use FU when none available (Count)
system.cpu0.statFuBusy::FloatMultAcc                0      0.00%     83.16% # attempts to use FU when none available (Count)
system.cpu0.statFuBusy::FloatDiv                    0      0.00%     83.16% # attempts to use FU when none available (Count)
system.cpu0.statFuBusy::FloatMisc                   0      0.00%     83.16% # attempts to use FU when none available (Count)
system.cpu0.statFuBusy::FloatSqrt                   0      0.00%     83.16% # attempts to use FU when none available (Count)
system.cpu0.statFuBusy::SimdAdd                    40      0.00%     83.16% # attempts to use FU when none available (Count)
system.cpu0.statFuBusy::SimdAddAcc                  0      0.00%     83.16% # attempts to use FU when none available (Count)
system.cpu0.statFuBusy::SimdAlu                 22498      0.53%     83.70% # attempts to use FU when none available (Count)
system.cpu0.statFuBusy::SimdCmp                    66      0.00%     83.70% # attempts to use FU when none available (Count)
system.cpu0.statFuBusy::SimdCvt                  1530      0.04%     83.74% # attempts to use FU when none available (Count)
system.cpu0.statFuBusy::SimdMisc                 3709      0.09%     83.82% # attempts to use FU when none available (Count)
system.cpu0.statFuBusy::SimdMult                    0      0.00%     83.82% # attempts to use FU when none available (Count)
system.cpu0.statFuBusy::SimdMultAcc                 0      0.00%     83.82% # attempts to use FU when none available (Count)
system.cpu0.statFuBusy::SimdMatMultAcc              0      0.00%     83.82% # attempts to use FU when none available (Count)
system.cpu0.statFuBusy::SimdShift                 352      0.01%     83.83% # attempts to use FU when none available (Count)
system.cpu0.statFuBusy::SimdShiftAcc                0      0.00%     83.83% # attempts to use FU when none available (Count)
system.cpu0.statFuBusy::SimdDiv                     0      0.00%     83.83% # attempts to use FU when none available (Count)
system.cpu0.statFuBusy::SimdSqrt                    0      0.00%     83.83% # attempts to use FU when none available (Count)
system.cpu0.statFuBusy::SimdFloatAdd                0      0.00%     83.83% # attempts to use FU when none available (Count)
system.cpu0.statFuBusy::SimdFloatAlu                0      0.00%     83.83% # attempts to use FU when none available (Count)
system.cpu0.statFuBusy::SimdFloatCmp                0      0.00%     83.83% # attempts to use FU when none available (Count)
system.cpu0.statFuBusy::SimdFloatCvt                0      0.00%     83.83% # attempts to use FU when none available (Count)
system.cpu0.statFuBusy::SimdFloatDiv                0      0.00%     83.83% # attempts to use FU when none available (Count)
system.cpu0.statFuBusy::SimdFloatMisc               0      0.00%     83.83% # attempts to use FU when none available (Count)
system.cpu0.statFuBusy::SimdFloatMult               0      0.00%     83.83% # attempts to use FU when none available (Count)
system.cpu0.statFuBusy::SimdFloatMultAcc            0      0.00%     83.83% # attempts to use FU when none available (Count)
system.cpu0.statFuBusy::SimdFloatMatMultAcc            0      0.00%     83.83% # attempts to use FU when none available (Count)
system.cpu0.statFuBusy::SimdFloatSqrt               0      0.00%     83.83% # attempts to use FU when none available (Count)
system.cpu0.statFuBusy::SimdReduceAdd               0      0.00%     83.83% # attempts to use FU when none available (Count)
system.cpu0.statFuBusy::SimdReduceAlu               0      0.00%     83.83% # attempts to use FU when none available (Count)
system.cpu0.statFuBusy::SimdReduceCmp               0      0.00%     83.83% # attempts to use FU when none available (Count)
system.cpu0.statFuBusy::SimdFloatReduceAdd            0      0.00%     83.83% # attempts to use FU when none available (Count)
system.cpu0.statFuBusy::SimdFloatReduceCmp            0      0.00%     83.83% # attempts to use FU when none available (Count)
system.cpu0.statFuBusy::SimdAes                     0      0.00%     83.83% # attempts to use FU when none available (Count)
system.cpu0.statFuBusy::SimdAesMix                  0      0.00%     83.83% # attempts to use FU when none available (Count)
system.cpu0.statFuBusy::SimdSha1Hash                0      0.00%     83.83% # attempts to use FU when none available (Count)
system.cpu0.statFuBusy::SimdSha1Hash2               0      0.00%     83.83% # attempts to use FU when none available (Count)
system.cpu0.statFuBusy::SimdSha256Hash              0      0.00%     83.83% # attempts to use FU when none available (Count)
system.cpu0.statFuBusy::SimdSha256Hash2             0      0.00%     83.83% # attempts to use FU when none available (Count)
system.cpu0.statFuBusy::SimdShaSigma2               0      0.00%     83.83% # attempts to use FU when none available (Count)
system.cpu0.statFuBusy::SimdShaSigma3               0      0.00%     83.83% # attempts to use FU when none available (Count)
system.cpu0.statFuBusy::SimdPredAlu                 0      0.00%     83.83% # attempts to use FU when none available (Count)
system.cpu0.statFuBusy::Matrix                      0      0.00%     83.83% # attempts to use FU when none available (Count)
system.cpu0.statFuBusy::MatrixMov                   0      0.00%     83.83% # attempts to use FU when none available (Count)
system.cpu0.statFuBusy::MatrixOP                    0      0.00%     83.83% # attempts to use FU when none available (Count)
system.cpu0.statFuBusy::MemRead                440667     10.44%     94.28% # attempts to use FU when none available (Count)
system.cpu0.statFuBusy::MemWrite               144997      3.44%     97.71% # attempts to use FU when none available (Count)
system.cpu0.statFuBusy::FloatMemRead            68830      1.63%     99.34% # attempts to use FU when none available (Count)
system.cpu0.statFuBusy::FloatMemWrite           27695      0.66%    100.00% # attempts to use FU when none available (Count)
system.cpu0.statFuBusy::IprAccess                   0      0.00%    100.00% # attempts to use FU when none available (Count)
system.cpu0.statFuBusy::InstPrefetch                0      0.00%    100.00% # attempts to use FU when none available (Count)
system.cpu0.statFuBusy::VectorUnitStrideLoad            0      0.00%    100.00% # attempts to use FU when none available (Count)
system.cpu0.statFuBusy::VectorUnitStrideStore            0      0.00%    100.00% # attempts to use FU when none available (Count)
system.cpu0.statFuBusy::VectorUnitStrideMaskLoad            0      0.00%    100.00% # attempts to use FU when none available (Count)
system.cpu0.statFuBusy::VectorUnitStrideMaskStore            0      0.00%    100.00% # attempts to use FU when none available (Count)
system.cpu0.statFuBusy::VectorStridedLoad            0      0.00%    100.00% # attempts to use FU when none available (Count)
system.cpu0.statFuBusy::VectorStridedStore            0      0.00%    100.00% # attempts to use FU when none available (Count)
system.cpu0.statFuBusy::VectorIndexedLoad            0      0.00%    100.00% # attempts to use FU when none available (Count)
system.cpu0.statFuBusy::VectorIndexedStore            0      0.00%    100.00% # attempts to use FU when none available (Count)
system.cpu0.statFuBusy::VectorUnitStrideFaultOnlyFirstLoad            0      0.00%    100.00% # attempts to use FU when none available (Count)
system.cpu0.statFuBusy::VectorWholeRegisterLoad            0      0.00%    100.00% # attempts to use FU when none available (Count)
system.cpu0.statFuBusy::VectorWholeRegisterStore            0      0.00%    100.00% # attempts to use FU when none available (Count)
system.cpu0.statFuBusy::VectorIntegerArith            0      0.00%    100.00% # attempts to use FU when none available (Count)
system.cpu0.statFuBusy::VectorFloatArith            0      0.00%    100.00% # attempts to use FU when none available (Count)
system.cpu0.statFuBusy::VectorFloatConvert            0      0.00%    100.00% # attempts to use FU when none available (Count)
system.cpu0.statFuBusy::VectorIntegerReduce            0      0.00%    100.00% # attempts to use FU when none available (Count)
system.cpu0.statFuBusy::VectorFloatReduce            0      0.00%    100.00% # attempts to use FU when none available (Count)
system.cpu0.statFuBusy::VectorMisc                  0      0.00%    100.00% # attempts to use FU when none available (Count)
system.cpu0.statFuBusy::VectorIntegerExtension            0      0.00%    100.00% # attempts to use FU when none available (Count)
system.cpu0.statFuBusy::VectorConfig                0      0.00%    100.00% # attempts to use FU when none available (Count)
system.cpu0.statIssuedInstType_0::No_OpClass      3443977      1.21%      1.21% # Number of instructions issued per FU type, per thread (Count)
system.cpu0.statIssuedInstType_0::IntAlu    215016672     75.30%     76.50% # Number of instructions issued per FU type, per thread (Count)
system.cpu0.statIssuedInstType_0::IntMult       106254      0.04%     76.54% # Number of instructions issued per FU type, per thread (Count)
system.cpu0.statIssuedInstType_0::IntDiv        31665      0.01%     76.55% # Number of instructions issued per FU type, per thread (Count)
system.cpu0.statIssuedInstType_0::FloatAdd       288429      0.10%     76.65% # Number of instructions issued per FU type, per thread (Count)
system.cpu0.statIssuedInstType_0::FloatCmp            2      0.00%     76.65% # Number of instructions issued per FU type, per thread (Count)
system.cpu0.statIssuedInstType_0::FloatCvt           64      0.00%     76.65% # Number of instructions issued per FU type, per thread (Count)
system.cpu0.statIssuedInstType_0::FloatMult            4      0.00%     76.65% # Number of instructions issued per FU type, per thread (Count)
system.cpu0.statIssuedInstType_0::FloatMultAcc            0      0.00%     76.65% # Number of instructions issued per FU type, per thread (Count)
system.cpu0.statIssuedInstType_0::FloatDiv           35      0.00%     76.65% # Number of instructions issued per FU type, per thread (Count)
system.cpu0.statIssuedInstType_0::FloatMisc            0      0.00%     76.65% # Number of instructions issued per FU type, per thread (Count)
system.cpu0.statIssuedInstType_0::FloatSqrt            0      0.00%     76.65% # Number of instructions issued per FU type, per thread (Count)
system.cpu0.statIssuedInstType_0::SimdAdd        17229      0.01%     76.66% # Number of instructions issued per FU type, per thread (Count)
system.cpu0.statIssuedInstType_0::SimdAddAcc            0      0.00%     76.66% # Number of instructions issued per FU type, per thread (Count)
system.cpu0.statIssuedInstType_0::SimdAlu       406031      0.14%     76.80% # Number of instructions issued per FU type, per thread (Count)
system.cpu0.statIssuedInstType_0::SimdCmp        13636      0.00%     76.81% # Number of instructions issued per FU type, per thread (Count)
system.cpu0.statIssuedInstType_0::SimdCvt       148269      0.05%     76.86% # Number of instructions issued per FU type, per thread (Count)
system.cpu0.statIssuedInstType_0::SimdMisc       829949      0.29%     77.15% # Number of instructions issued per FU type, per thread (Count)
system.cpu0.statIssuedInstType_0::SimdMult            7      0.00%     77.15% # Number of instructions issued per FU type, per thread (Count)
system.cpu0.statIssuedInstType_0::SimdMultAcc            0      0.00%     77.15% # Number of instructions issued per FU type, per thread (Count)
system.cpu0.statIssuedInstType_0::SimdMatMultAcc            0      0.00%     77.15% # Number of instructions issued per FU type, per thread (Count)
system.cpu0.statIssuedInstType_0::SimdShift        10561      0.00%     77.15% # Number of instructions issued per FU type, per thread (Count)
system.cpu0.statIssuedInstType_0::SimdShiftAcc            0      0.00%     77.15% # Number of instructions issued per FU type, per thread (Count)
system.cpu0.statIssuedInstType_0::SimdDiv            0      0.00%     77.15% # Number of instructions issued per FU type, per thread (Count)
system.cpu0.statIssuedInstType_0::SimdSqrt            0      0.00%     77.15% # Number of instructions issued per FU type, per thread (Count)
system.cpu0.statIssuedInstType_0::SimdFloatAdd          344      0.00%     77.15% # Number of instructions issued per FU type, per thread (Count)
system.cpu0.statIssuedInstType_0::SimdFloatAlu            0      0.00%     77.15% # Number of instructions issued per FU type, per thread (Count)
system.cpu0.statIssuedInstType_0::SimdFloatCmp            1      0.00%     77.15% # Number of instructions issued per FU type, per thread (Count)
system.cpu0.statIssuedInstType_0::SimdFloatCvt          938      0.00%     77.15% # Number of instructions issued per FU type, per thread (Count)
system.cpu0.statIssuedInstType_0::SimdFloatDiv           10      0.00%     77.15% # Number of instructions issued per FU type, per thread (Count)
system.cpu0.statIssuedInstType_0::SimdFloatMisc            0      0.00%     77.15% # Number of instructions issued per FU type, per thread (Count)
system.cpu0.statIssuedInstType_0::SimdFloatMult          364      0.00%     77.15% # Number of instructions issued per FU type, per thread (Count)
system.cpu0.statIssuedInstType_0::SimdFloatMultAcc            0      0.00%     77.15% # Number of instructions issued per FU type, per thread (Count)
system.cpu0.statIssuedInstType_0::SimdFloatMatMultAcc            0      0.00%     77.15% # Number of instructions issued per FU type, per thread (Count)
system.cpu0.statIssuedInstType_0::SimdFloatSqrt            0      0.00%     77.15% # Number of instructions issued per FU type, per thread (Count)
system.cpu0.statIssuedInstType_0::SimdReduceAdd            0      0.00%     77.15% # Number of instructions issued per FU type, per thread (Count)
system.cpu0.statIssuedInstType_0::SimdReduceAlu            0      0.00%     77.15% # Number of instructions issued per FU type, per thread (Count)
system.cpu0.statIssuedInstType_0::SimdReduceCmp            0      0.00%     77.15% # Number of instructions issued per FU type, per thread (Count)
system.cpu0.statIssuedInstType_0::SimdFloatReduceAdd            0      0.00%     77.15% # Number of instructions issued per FU type, per thread (Count)
system.cpu0.statIssuedInstType_0::SimdFloatReduceCmp            0      0.00%     77.15% # Number of instructions issued per FU type, per thread (Count)
system.cpu0.statIssuedInstType_0::SimdAes            0      0.00%     77.15% # Number of instructions issued per FU type, per thread (Count)
system.cpu0.statIssuedInstType_0::SimdAesMix            0      0.00%     77.15% # Number of instructions issued per FU type, per thread (Count)
system.cpu0.statIssuedInstType_0::SimdSha1Hash            0      0.00%     77.15% # Number of instructions issued per FU type, per thread (Count)
system.cpu0.statIssuedInstType_0::SimdSha1Hash2            0      0.00%     77.15% # Number of instructions issued per FU type, per thread (Count)
system.cpu0.statIssuedInstType_0::SimdSha256Hash            0      0.00%     77.15% # Number of instructions issued per FU type, per thread (Count)
system.cpu0.statIssuedInstType_0::SimdSha256Hash2            0      0.00%     77.15% # Number of instructions issued per FU type, per thread (Count)
system.cpu0.statIssuedInstType_0::SimdShaSigma2            0      0.00%     77.15% # Number of instructions issued per FU type, per thread (Count)
system.cpu0.statIssuedInstType_0::SimdShaSigma3            0      0.00%     77.15% # Number of instructions issued per FU type, per thread (Count)
system.cpu0.statIssuedInstType_0::SimdPredAlu            0      0.00%     77.15% # Number of instructions issued per FU type, per thread (Count)
system.cpu0.statIssuedInstType_0::Matrix            0      0.00%     77.15% # Number of instructions issued per FU type, per thread (Count)
system.cpu0.statIssuedInstType_0::MatrixMov            0      0.00%     77.15% # Number of instructions issued per FU type, per thread (Count)
system.cpu0.statIssuedInstType_0::MatrixOP            0      0.00%     77.15% # Number of instructions issued per FU type, per thread (Count)
system.cpu0.statIssuedInstType_0::MemRead     43789996     15.34%     92.49% # Number of instructions issued per FU type, per thread (Count)
system.cpu0.statIssuedInstType_0::MemWrite     19379026      6.79%     99.27% # Number of instructions issued per FU type, per thread (Count)
system.cpu0.statIssuedInstType_0::FloatMemRead       761398      0.27%     99.54% # Number of instructions issued per FU type, per thread (Count)
system.cpu0.statIssuedInstType_0::FloatMemWrite      1310431      0.46%    100.00% # Number of instructions issued per FU type, per thread (Count)
system.cpu0.statIssuedInstType_0::IprAccess            0      0.00%    100.00% # Number of instructions issued per FU type, per thread (Count)
system.cpu0.statIssuedInstType_0::InstPrefetch            0      0.00%    100.00% # Number of instructions issued per FU type, per thread (Count)
system.cpu0.statIssuedInstType_0::VectorUnitStrideLoad            0      0.00%    100.00% # Number of instructions issued per FU type, per thread (Count)
system.cpu0.statIssuedInstType_0::VectorUnitStrideStore            0      0.00%    100.00% # Number of instructions issued per FU type, per thread (Count)
system.cpu0.statIssuedInstType_0::VectorUnitStrideMaskLoad            0      0.00%    100.00% # Number of instructions issued per FU type, per thread (Count)
system.cpu0.statIssuedInstType_0::VectorUnitStrideMaskStore            0      0.00%    100.00% # Number of instructions issued per FU type, per thread (Count)
system.cpu0.statIssuedInstType_0::VectorStridedLoad            0      0.00%    100.00% # Number of instructions issued per FU type, per thread (Count)
system.cpu0.statIssuedInstType_0::VectorStridedStore            0      0.00%    100.00% # Number of instructions issued per FU type, per thread (Count)
system.cpu0.statIssuedInstType_0::VectorIndexedLoad            0      0.00%    100.00% # Number of instructions issued per FU type, per thread (Count)
system.cpu0.statIssuedInstType_0::VectorIndexedStore            0      0.00%    100.00% # Number of instructions issued per FU type, per thread (Count)
system.cpu0.statIssuedInstType_0::VectorUnitStrideFaultOnlyFirstLoad            0      0.00%    100.00% # Number of instructions issued per FU type, per thread (Count)
system.cpu0.statIssuedInstType_0::VectorWholeRegisterLoad            0      0.00%    100.00% # Number of instructions issued per FU type, per thread (Count)
system.cpu0.statIssuedInstType_0::VectorWholeRegisterStore            0      0.00%    100.00% # Number of instructions issued per FU type, per thread (Count)
system.cpu0.statIssuedInstType_0::VectorIntegerArith            0      0.00%    100.00% # Number of instructions issued per FU type, per thread (Count)
system.cpu0.statIssuedInstType_0::VectorFloatArith            0      0.00%    100.00% # Number of instructions issued per FU type, per thread (Count)
system.cpu0.statIssuedInstType_0::VectorFloatConvert            0      0.00%    100.00% # Number of instructions issued per FU type, per thread (Count)
system.cpu0.statIssuedInstType_0::VectorIntegerReduce            0      0.00%    100.00% # Number of instructions issued per FU type, per thread (Count)
system.cpu0.statIssuedInstType_0::VectorFloatReduce            0      0.00%    100.00% # Number of instructions issued per FU type, per thread (Count)
system.cpu0.statIssuedInstType_0::VectorMisc            0      0.00%    100.00% # Number of instructions issued per FU type, per thread (Count)
system.cpu0.statIssuedInstType_0::VectorIntegerExtension            0      0.00%    100.00% # Number of instructions issued per FU type, per thread (Count)
system.cpu0.statIssuedInstType_0::VectorConfig            0      0.00%    100.00% # Number of instructions issued per FU type, per thread (Count)
system.cpu0.statIssuedInstType_0::total     285555292                       # Number of instructions issued per FU type, per thread (Count)
system.cpu0.issueRate                        1.213522                       # Inst issue rate ((Count/Cycle))
system.cpu0.fuBusy                            4219393                       # FU busy when requested (Count)
system.cpu0.fuBusyRate                       0.014776                       # FU busy rate (busy events/executed inst) ((Count/Count))
system.cpu0.intInstQueueReads               782164020                       # Number of integer instruction queue reads (Count)
system.cpu0.intInstQueueWrites              336105376                       # Number of integer instruction queue writes (Count)
system.cpu0.intInstQueueWakeupAccesses      277831683                       # Number of integer instruction queue wakeup accesses (Count)
system.cpu0.fpInstQueueReads                  8305545                       # Number of floating instruction queue reads (Count)
system.cpu0.fpInstQueueWrites                 4872482                       # Number of floating instruction queue writes (Count)
system.cpu0.fpInstQueueWakeupAccesses         3951811                       # Number of floating instruction queue wakeup accesses (Count)
system.cpu0.vecInstQueueReads                       0                       # Number of vector instruction queue reads (Count)
system.cpu0.vecInstQueueWrites                      0                       # Number of vector instruction queue writes (Count)
system.cpu0.vecInstQueueWakeupAccesses              0                       # Number of vector instruction queue wakeup accesses (Count)
system.cpu0.intAluAccesses                  282121629                       # Number of integer alu accesses (Count)
system.cpu0.fpAluAccesses                     4209079                       # Number of floating point alu accesses (Count)
system.cpu0.vecAluAccesses                          0                       # Number of vector alu accesses (Count)
system.cpu0.numSquashedInsts                  2094288                       # Number of squashed instructions skipped in execute (Count)
system.cpu0.numSwp                                  0                       # Number of swp insts executed (Count)
system.cpu0.timesIdled                        1316185                       # Number of times that the entire CPU went into an idle state and unscheduled itself (Count)
system.cpu0.idleCycles                       20471740                       # Total number of cycles that the CPU has spent unscheduled due to idling (Cycle)
system.cpu0.MemDepUnit__0.insertedLoads      46230044                       # Number of loads inserted to the mem dependence unit. (Count)
system.cpu0.MemDepUnit__0.insertedStores     21572313                       # Number of stores inserted to the mem dependence unit. (Count)
system.cpu0.MemDepUnit__0.conflictingLoads      1848772                       # Number of conflicting loads. (Count)
system.cpu0.MemDepUnit__0.conflictingStores      1526737                       # Number of conflicting stores. (Count)
system.cpu0.MemDepUnit__1.insertedLoads             0                       # Number of loads inserted to the mem dependence unit. (Count)
system.cpu0.MemDepUnit__1.insertedStores            0                       # Number of stores inserted to the mem dependence unit. (Count)
system.cpu0.MemDepUnit__1.conflictingLoads            0                       # Number of conflicting loads. (Count)
system.cpu0.MemDepUnit__1.conflictingStores            0                       # Number of conflicting stores. (Count)
system.cpu0.MemDepUnit__2.insertedLoads             0                       # Number of loads inserted to the mem dependence unit. (Count)
system.cpu0.MemDepUnit__2.insertedStores            0                       # Number of stores inserted to the mem dependence unit. (Count)
system.cpu0.MemDepUnit__2.conflictingLoads            0                       # Number of conflicting loads. (Count)
system.cpu0.MemDepUnit__2.conflictingStores            0                       # Number of conflicting stores. (Count)
system.cpu0.MemDepUnit__3.insertedLoads             0                       # Number of loads inserted to the mem dependence unit. (Count)
system.cpu0.MemDepUnit__3.insertedStores            0                       # Number of stores inserted to the mem dependence unit. (Count)
system.cpu0.MemDepUnit__3.conflictingLoads            0                       # Number of conflicting loads. (Count)
system.cpu0.MemDepUnit__3.conflictingStores            0                       # Number of conflicting stores. (Count)
system.cpu0.branchPred.lookups_0::NoBranch         6967      0.02%      0.02% # Number of BP lookups (Count)
system.cpu0.branchPred.lookups_0::Return      2286725      6.16%      6.18% # Number of BP lookups (Count)
system.cpu0.branchPred.lookups_0::CallDirect      1237082      3.33%      9.52% # Number of BP lookups (Count)
system.cpu0.branchPred.lookups_0::CallIndirect       956754      2.58%     12.10% # Number of BP lookups (Count)
system.cpu0.branchPred.lookups_0::DirectCond     29911624     80.63%     92.73% # Number of BP lookups (Count)
system.cpu0.branchPred.lookups_0::DirectUncond      1268448      3.42%     96.15% # Number of BP lookups (Count)
system.cpu0.branchPred.lookups_0::IndirectCond            0      0.00%     96.15% # Number of BP lookups (Count)
system.cpu0.branchPred.lookups_0::IndirectUncond      1428904      3.85%    100.00% # Number of BP lookups (Count)
system.cpu0.branchPred.lookups_0::total      37096504                       # Number of BP lookups (Count)
system.cpu0.branchPred.squashes_0::NoBranch         6326      0.08%      0.08% # Number of branches that got squashed (completely removed) as an earlier branch was mispredicted. (Count)
system.cpu0.branchPred.squashes_0::Return       509501      6.48%      6.56% # Number of branches that got squashed (completely removed) as an earlier branch was mispredicted. (Count)
system.cpu0.branchPred.squashes_0::CallDirect       214027      2.72%      9.28% # Number of branches that got squashed (completely removed) as an earlier branch was mispredicted. (Count)
system.cpu0.branchPred.squashes_0::CallIndirect       202580      2.58%     11.86% # Number of branches that got squashed (completely removed) as an earlier branch was mispredicted. (Count)
system.cpu0.branchPred.squashes_0::DirectCond      6190944     78.71%     90.57% # Number of branches that got squashed (completely removed) as an earlier branch was mispredicted. (Count)
system.cpu0.branchPred.squashes_0::DirectUncond       348542      4.43%     95.00% # Number of branches that got squashed (completely removed) as an earlier branch was mispredicted. (Count)
system.cpu0.branchPred.squashes_0::IndirectCond            0      0.00%     95.00% # Number of branches that got squashed (completely removed) as an earlier branch was mispredicted. (Count)
system.cpu0.branchPred.squashes_0::IndirectUncond       393267      5.00%    100.00% # Number of branches that got squashed (completely removed) as an earlier branch was mispredicted. (Count)
system.cpu0.branchPred.squashes_0::total      7865187                       # Number of branches that got squashed (completely removed) as an earlier branch was mispredicted. (Count)
system.cpu0.branchPred.corrected_0::NoBranch         1510      0.12%      0.12% # Number of branches that got corrected but not yet commited. Branches get corrected by decode or after execute. Also a branch misprediction can be detected out-of-order. Therefore, a corrected branch might not end up beeing committed in case an even earlier branch was mispredicted (Count)
system.cpu0.branchPred.corrected_0::Return         9762      0.81%      0.93% # Number of branches that got corrected but not yet commited. Branches get corrected by decode or after execute. Also a branch misprediction can be detected out-of-order. Therefore, a corrected branch might not end up beeing committed in case an even earlier branch was mispredicted (Count)
system.cpu0.branchPred.corrected_0::CallDirect        33878      2.80%      3.73% # Number of branches that got corrected but not yet commited. Branches get corrected by decode or after execute. Also a branch misprediction can be detected out-of-order. Therefore, a corrected branch might not end up beeing committed in case an even earlier branch was mispredicted (Count)
system.cpu0.branchPred.corrected_0::CallIndirect        90670      7.49%     11.21% # Number of branches that got corrected but not yet commited. Branches get corrected by decode or after execute. Also a branch misprediction can be detected out-of-order. Therefore, a corrected branch might not end up beeing committed in case an even earlier branch was mispredicted (Count)
system.cpu0.branchPred.corrected_0::DirectCond       866954     71.58%     82.80% # Number of branches that got corrected but not yet commited. Branches get corrected by decode or after execute. Also a branch misprediction can be detected out-of-order. Therefore, a corrected branch might not end up beeing committed in case an even earlier branch was mispredicted (Count)
system.cpu0.branchPred.corrected_0::DirectUncond        34068      2.81%     85.61% # Number of branches that got corrected but not yet commited. Branches get corrected by decode or after execute. Also a branch misprediction can be detected out-of-order. Therefore, a corrected branch might not end up beeing committed in case an even earlier branch was mispredicted (Count)
system.cpu0.branchPred.corrected_0::IndirectCond            0      0.00%     85.61% # Number of branches that got corrected but not yet commited. Branches get corrected by decode or after execute. Also a branch misprediction can be detected out-of-order. Therefore, a corrected branch might not end up beeing committed in case an even earlier branch was mispredicted (Count)
system.cpu0.branchPred.corrected_0::IndirectUncond       174279     14.39%    100.00% # Number of branches that got corrected but not yet commited. Branches get corrected by decode or after execute. Also a branch misprediction can be detected out-of-order. Therefore, a corrected branch might not end up beeing committed in case an even earlier branch was mispredicted (Count)
system.cpu0.branchPred.corrected_0::total      1211121                       # Number of branches that got corrected but not yet commited. Branches get corrected by decode or after execute. Also a branch misprediction can be detected out-of-order. Therefore, a corrected branch might not end up beeing committed in case an even earlier branch was mispredicted (Count)
system.cpu0.branchPred.earlyResteers_0::NoBranch            0                       # Number of branches that got redirected after decode. (Count)
system.cpu0.branchPred.earlyResteers_0::Return            0                       # Number of branches that got redirected after decode. (Count)
system.cpu0.branchPred.earlyResteers_0::CallDirect            0                       # Number of branches that got redirected after decode. (Count)
system.cpu0.branchPred.earlyResteers_0::CallIndirect            0                       # Number of branches that got redirected after decode. (Count)
system.cpu0.branchPred.earlyResteers_0::DirectCond            0                       # Number of branches that got redirected after decode. (Count)
system.cpu0.branchPred.earlyResteers_0::DirectUncond            0                       # Number of branches that got redirected after decode. (Count)
system.cpu0.branchPred.earlyResteers_0::IndirectCond            0                       # Number of branches that got redirected after decode. (Count)
system.cpu0.branchPred.earlyResteers_0::IndirectUncond            0                       # Number of branches that got redirected after decode. (Count)
system.cpu0.branchPred.earlyResteers_0::total            0                       # Number of branches that got redirected after decode. (Count)
system.cpu0.branchPred.committed_0::NoBranch          641      0.00%      0.00% # Number of branches finally committed  (Count)
system.cpu0.branchPred.committed_0::Return      1777224      6.08%      6.08% # Number of branches finally committed  (Count)
system.cpu0.branchPred.committed_0::CallDirect      1023055      3.50%      9.58% # Number of branches finally committed  (Count)
system.cpu0.branchPred.committed_0::CallIndirect       754174      2.58%     12.16% # Number of branches finally committed  (Count)
system.cpu0.branchPred.committed_0::DirectCond     23720677     81.15%     93.31% # Number of branches finally committed  (Count)
system.cpu0.branchPred.committed_0::DirectUncond       919906      3.15%     96.46% # Number of branches finally committed  (Count)
system.cpu0.branchPred.committed_0::IndirectCond            0      0.00%     96.46% # Number of branches finally committed  (Count)
system.cpu0.branchPred.committed_0::IndirectUncond      1035637      3.54%    100.00% # Number of branches finally committed  (Count)
system.cpu0.branchPred.committed_0::total     29231314                       # Number of branches finally committed  (Count)
system.cpu0.branchPred.mispredicted_0::NoBranch          641      0.06%      0.06% # Number of committed branches that were mispredicted. (Count)
system.cpu0.branchPred.mispredicted_0::Return         2751      0.26%      0.32% # Number of committed branches that were mispredicted. (Count)
system.cpu0.branchPred.mispredicted_0::CallDirect        24095      2.30%      2.62% # Number of committed branches that were mispredicted. (Count)
system.cpu0.branchPred.mispredicted_0::CallIndirect        76283      7.27%      9.89% # Number of committed branches that were mispredicted. (Count)
system.cpu0.branchPred.mispredicted_0::DirectCond       762416     72.70%     82.59% # Number of committed branches that were mispredicted. (Count)
system.cpu0.branchPred.mispredicted_0::DirectUncond        16636      1.59%     84.18% # Number of committed branches that were mispredicted. (Count)
system.cpu0.branchPred.mispredicted_0::IndirectCond            0      0.00%     84.18% # Number of committed branches that were mispredicted. (Count)
system.cpu0.branchPred.mispredicted_0::IndirectUncond       165902     15.82%    100.00% # Number of committed branches that were mispredicted. (Count)
system.cpu0.branchPred.mispredicted_0::total      1048724                       # Number of committed branches that were mispredicted. (Count)
system.cpu0.branchPred.targetProvider_0::NoTarget     24927548     67.20%     67.20% # The component providing the target for taken branches (Count)
system.cpu0.branchPred.targetProvider_0::BTB      8124215     21.90%     89.10% # The component providing the target for taken branches (Count)
system.cpu0.branchPred.targetProvider_0::RAS      2286725      6.16%     95.26% # The component providing the target for taken branches (Count)
system.cpu0.branchPred.targetProvider_0::Indirect      1758016      4.74%    100.00% # The component providing the target for taken branches (Count)
system.cpu0.branchPred.targetProvider_0::total     37096504                       # The component providing the target for taken branches (Count)
system.cpu0.branchPred.targetWrong_0::NoBranch       774472     64.30%     64.30% # Number of branches where the target was incorrect or not available at prediction time. (Count)
system.cpu0.branchPred.targetWrong_0::Return       329171     27.33%     91.62% # Number of branches where the target was incorrect or not available at prediction time. (Count)
system.cpu0.branchPred.targetWrong_0::CallDirect         9762      0.81%     92.43% # Number of branches where the target was incorrect or not available at prediction time. (Count)
system.cpu0.branchPred.targetWrong_0::CallIndirect        91138      7.57%    100.00% # Number of branches where the target was incorrect or not available at prediction time. (Count)
system.cpu0.branchPred.targetWrong_0::DirectCond            0      0.00%    100.00% # Number of branches where the target was incorrect or not available at prediction time. (Count)
system.cpu0.branchPred.targetWrong_0::DirectUncond            0      0.00%    100.00% # Number of branches where the target was incorrect or not available at prediction time. (Count)
system.cpu0.branchPred.targetWrong_0::IndirectCond            0      0.00%    100.00% # Number of branches where the target was incorrect or not available at prediction time. (Count)
system.cpu0.branchPred.targetWrong_0::IndirectUncond            0      0.00%    100.00% # Number of branches where the target was incorrect or not available at prediction time. (Count)
system.cpu0.branchPred.targetWrong_0::total      1204543                       # Number of branches where the target was incorrect or not available at prediction time. (Count)
system.cpu0.branchPred.condPredicted         29918565                       # Number of conditional branches predicted (Count)
system.cpu0.branchPred.condPredictedTaken      5928525                       # Number of conditional branches predicted as taken (Count)
system.cpu0.branchPred.condIncorrect          1211121                       # Number of conditional branches incorrect (Count)
system.cpu0.branchPred.predTakenBTBMiss         79063                       # Number of branches predicted taken but missed in BTB (Count)
system.cpu0.branchPred.NotTakenMispredicted       898325                       # Number branches predicted 'not taken' but turned out to be taken (Count)
system.cpu0.branchPred.TakenMispredicted       312796                       # Number branches predicted taken but are actually not taken (Count)
system.cpu0.branchPred.BTBLookups            37096504                       # Number of BTB lookups (Count)
system.cpu0.branchPred.BTBUpdates              622104                       # Number of BTB updates (Count)
system.cpu0.branchPred.BTBHits               16668205                       # Number of BTB hits (Count)
system.cpu0.branchPred.BTBHitRatio           0.449320                       # BTB Hit Ratio (Ratio)
system.cpu0.branchPred.BTBMispredicted         123846                       # Number BTB mispredictions. No target found or target wrong (Count)
system.cpu0.branchPred.indirectLookups        2385655                       # Number of indirect predictor lookups. (Count)
system.cpu0.branchPred.indirectHits           1758016                       # Number of indirect target hits. (Count)
system.cpu0.branchPred.indirectMisses          627639                       # Number of indirect misses. (Count)
system.cpu0.branchPred.indirectMispredicted            0                       # Number of mispredicted indirect branches. (Count)
system.cpu0.branchPred.btb.lookups::NoBranch         6967      0.02%      0.02% # Number of BTB lookups (Count)
system.cpu0.branchPred.btb.lookups::Return      2286725      6.16%      6.18% # Number of BTB lookups (Count)
system.cpu0.branchPred.btb.lookups::CallDirect      1237082      3.33%      9.52% # Number of BTB lookups (Count)
system.cpu0.branchPred.btb.lookups::CallIndirect       956754      2.58%     12.10% # Number of BTB lookups (Count)
system.cpu0.branchPred.btb.lookups::DirectCond     29911624     80.63%     92.73% # Number of BTB lookups (Count)
system.cpu0.branchPred.btb.lookups::DirectUncond      1268448      3.42%     96.15% # Number of BTB lookups (Count)
system.cpu0.branchPred.btb.lookups::IndirectCond            0      0.00%     96.15% # Number of BTB lookups (Count)
system.cpu0.branchPred.btb.lookups::IndirectUncond      1428904      3.85%    100.00% # Number of BTB lookups (Count)
system.cpu0.branchPred.btb.lookups::total     37096504                       # Number of BTB lookups (Count)
system.cpu0.branchPred.btb.misses::NoBranch         1052      0.01%      0.01% # Number of BTB misses (Count)
system.cpu0.branchPred.btb.misses::Return      2285412     11.19%     11.19% # Number of BTB misses (Count)
system.cpu0.branchPred.btb.misses::CallDirect        41341      0.20%     11.40% # Number of BTB misses (Count)
system.cpu0.branchPred.btb.misses::CallIndirect       950683      4.65%     16.05% # Number of BTB misses (Count)
system.cpu0.branchPred.btb.misses::DirectCond     15687963     76.80%     92.84% # Number of BTB misses (Count)
system.cpu0.branchPred.btb.misses::DirectUncond        33131      0.16%     93.01% # Number of BTB misses (Count)
system.cpu0.branchPred.btb.misses::IndirectCond            0      0.00%     93.01% # Number of BTB misses (Count)
system.cpu0.branchPred.btb.misses::IndirectUncond      1428717      6.99%    100.00% # Number of BTB misses (Count)
system.cpu0.branchPred.btb.misses::total     20428299                       # Number of BTB misses (Count)
system.cpu0.branchPred.btb.updates::NoBranch            0      0.00%      0.00% # Number of BTB updates (Count)
system.cpu0.branchPred.btb.updates::Return            0      0.00%      0.00% # Number of BTB updates (Count)
system.cpu0.branchPred.btb.updates::CallDirect        33878      5.45%      5.45% # Number of BTB updates (Count)
system.cpu0.branchPred.btb.updates::CallIndirect            0      0.00%      5.45% # Number of BTB updates (Count)
system.cpu0.branchPred.btb.updates::DirectCond       554158     89.08%     94.52% # Number of BTB updates (Count)
system.cpu0.branchPred.btb.updates::DirectUncond        34068      5.48%    100.00% # Number of BTB updates (Count)
system.cpu0.branchPred.btb.updates::IndirectCond            0      0.00%    100.00% # Number of BTB updates (Count)
system.cpu0.branchPred.btb.updates::IndirectUncond            0      0.00%    100.00% # Number of BTB updates (Count)
system.cpu0.branchPred.btb.updates::total       622104                       # Number of BTB updates (Count)
system.cpu0.branchPred.btb.mispredict::NoBranch            0      0.00%      0.00% # Number of BTB mispredictions. No target found or target wrong. (Count)
system.cpu0.branchPred.btb.mispredict::Return            0      0.00%      0.00% # Number of BTB mispredictions. No target found or target wrong. (Count)
system.cpu0.branchPred.btb.mispredict::CallDirect        33878      5.45%      5.45% # Number of BTB mispredictions. No target found or target wrong. (Count)
system.cpu0.branchPred.btb.mispredict::CallIndirect            0      0.00%      5.45% # Number of BTB mispredictions. No target found or target wrong. (Count)
system.cpu0.branchPred.btb.mispredict::DirectCond       554158     89.08%     94.52% # Number of BTB mispredictions. No target found or target wrong. (Count)
system.cpu0.branchPred.btb.mispredict::DirectUncond        34068      5.48%    100.00% # Number of BTB mispredictions. No target found or target wrong. (Count)
system.cpu0.branchPred.btb.mispredict::IndirectCond            0      0.00%    100.00% # Number of BTB mispredictions. No target found or target wrong. (Count)
system.cpu0.branchPred.btb.mispredict::IndirectUncond            0      0.00%    100.00% # Number of BTB mispredictions. No target found or target wrong. (Count)
system.cpu0.branchPred.btb.mispredict::total       622104                       # Number of BTB mispredictions. No target found or target wrong. (Count)
system.cpu0.branchPred.btb.power_state.pwrStateResidencyTicks::UNDEFINED 134362734028                       # Cumulative time (in ticks) in various power states (Tick)
system.cpu0.branchPred.indirectBranchPred.lookups      2385655                       # Number of lookups (Count)
system.cpu0.branchPred.indirectBranchPred.hits      1758016                       # Number of hits of a tag (Count)
system.cpu0.branchPred.indirectBranchPred.misses       627639                       # Number of misses (Count)
system.cpu0.branchPred.indirectBranchPred.targetRecords       264949                       # Number of targets that where recorded/installed in the cache (Count)
system.cpu0.branchPred.indirectBranchPred.indirectRecords      2650607                       # Number of indirect branches/calls recorded in the indirect hist (Count)
system.cpu0.branchPred.indirectBranchPred.speculativeOverflows            0                       # Number of times more than the allowed capacity for speculative branches/calls where in flight and destroy the path history (Count)
system.cpu0.branchPred.ras.pushes             2703337                       # Number of times a PC was pushed onto the RAS (Count)
system.cpu0.branchPred.ras.pops               2703332                       # Number of times a PC was poped from the RAS (Count)
system.cpu0.branchPred.ras.squashes            926108                       # Number of times the stack operation was squashed due to wrong speculation. (Count)
system.cpu0.branchPred.ras.used               1777224                       # Number of times the RAS is the provider (Count)
system.cpu0.branchPred.ras.correct            1774473                       # Number of times the RAS is the provider and the prediction is correct (Count)
system.cpu0.branchPred.ras.incorrect             2751                       # Number of times the RAS is the provider and the prediction is wrong (Count)
system.cpu0.commit.commitSquashedInsts       42994456                       # The number of squashed insts skipped by commit (Count)
system.cpu0.commit.commitNonSpecStalls          13566                       # The number of times commit has been forced to stall to communicate backwards (Count)
system.cpu0.commit.branchMispredicts          1145831                       # The number of times a branch was mispredicted (Count)
system.cpu0.commit.numCommittedDist::samples    208540277                       # Number of insts commited each cycle (Count)
system.cpu0.commit.numCommittedDist::mean     1.222403                       # Number of insts commited each cycle (Count)
system.cpu0.commit.numCommittedDist::stdev     2.416578                       # Number of insts commited each cycle (Count)
system.cpu0.commit.numCommittedDist::underflows            0      0.00%      0.00% # Number of insts commited each cycle (Count)
system.cpu0.commit.numCommittedDist::0      148046048     70.99%     70.99% # Number of insts commited each cycle (Count)
system.cpu0.commit.numCommittedDist::1       13249170      6.35%     77.34% # Number of insts commited each cycle (Count)
system.cpu0.commit.numCommittedDist::2        7819725      3.75%     81.09% # Number of insts commited each cycle (Count)
system.cpu0.commit.numCommittedDist::3       11772614      5.65%     86.74% # Number of insts commited each cycle (Count)
system.cpu0.commit.numCommittedDist::4        3549384      1.70%     88.44% # Number of insts commited each cycle (Count)
system.cpu0.commit.numCommittedDist::5        3283767      1.57%     90.02% # Number of insts commited each cycle (Count)
system.cpu0.commit.numCommittedDist::6        2263235      1.09%     91.10% # Number of insts commited each cycle (Count)
system.cpu0.commit.numCommittedDist::7        1932566      0.93%     92.03% # Number of insts commited each cycle (Count)
system.cpu0.commit.numCommittedDist::8       16623768      7.97%    100.00% # Number of insts commited each cycle (Count)
system.cpu0.commit.numCommittedDist::overflows            0      0.00%    100.00% # Number of insts commited each cycle (Count)
system.cpu0.commit.numCommittedDist::min_value            0                       # Number of insts commited each cycle (Count)
system.cpu0.commit.numCommittedDist::max_value            8                       # Number of insts commited each cycle (Count)
system.cpu0.commit.numCommittedDist::total    208540277                       # Number of insts commited each cycle (Count)
system.cpu0.commit.amos                             0                       # Number of atomic instructions committed (Count)
system.cpu0.commit.membars                       9020                       # Number of memory barriers committed (Count)
system.cpu0.commit.functionCalls              1777229                       # Number of function calls committed. (Count)
system.cpu0.commit.committedInstType_0::No_OpClass      2717778      1.07%      1.07% # Class of committed instruction (Count)
system.cpu0.commit.committedInstType_0::IntAlu    191918069     75.29%     76.35% # Class of committed instruction (Count)
system.cpu0.commit.committedInstType_0::IntMult       103235      0.04%     76.39% # Class of committed instruction (Count)
system.cpu0.commit.committedInstType_0::IntDiv        28669      0.01%     76.40% # Class of committed instruction (Count)
system.cpu0.commit.committedInstType_0::FloatAdd       254756      0.10%     76.50% # Class of committed instruction (Count)
system.cpu0.commit.committedInstType_0::FloatCmp            0      0.00%     76.50% # Class of committed instruction (Count)
system.cpu0.commit.committedInstType_0::FloatCvt           64      0.00%     76.50% # Class of committed instruction (Count)
system.cpu0.commit.committedInstType_0::FloatMult            0      0.00%     76.50% # Class of committed instruction (Count)
system.cpu0.commit.committedInstType_0::FloatMultAcc            0      0.00%     76.50% # Class of committed instruction (Count)
system.cpu0.commit.committedInstType_0::FloatDiv            0      0.00%     76.50% # Class of committed instruction (Count)
system.cpu0.commit.committedInstType_0::FloatMisc            0      0.00%     76.50% # Class of committed instruction (Count)
system.cpu0.commit.committedInstType_0::FloatSqrt            0      0.00%     76.50% # Class of committed instruction (Count)
system.cpu0.commit.committedInstType_0::SimdAdd        14120      0.01%     76.51% # Class of committed instruction (Count)
system.cpu0.commit.committedInstType_0::SimdAddAcc            0      0.00%     76.51% # Class of committed instruction (Count)
system.cpu0.commit.committedInstType_0::SimdAlu       368433      0.14%     76.65% # Class of committed instruction (Count)
system.cpu0.commit.committedInstType_0::SimdCmp        12642      0.00%     76.66% # Class of committed instruction (Count)
system.cpu0.commit.committedInstType_0::SimdCvt       132138      0.05%     76.71% # Class of committed instruction (Count)
system.cpu0.commit.committedInstType_0::SimdMisc       799377      0.31%     77.02% # Class of committed instruction (Count)
system.cpu0.commit.committedInstType_0::SimdMult            0      0.00%     77.02% # Class of committed instruction (Count)
system.cpu0.commit.committedInstType_0::SimdMultAcc            0      0.00%     77.02% # Class of committed instruction (Count)
system.cpu0.commit.committedInstType_0::SimdMatMultAcc            0      0.00%     77.02% # Class of committed instruction (Count)
system.cpu0.commit.committedInstType_0::SimdShift         4940      0.00%     77.03% # Class of committed instruction (Count)
system.cpu0.commit.committedInstType_0::SimdShiftAcc            0      0.00%     77.03% # Class of committed instruction (Count)
system.cpu0.commit.committedInstType_0::SimdDiv            0      0.00%     77.03% # Class of committed instruction (Count)
system.cpu0.commit.committedInstType_0::SimdSqrt            0      0.00%     77.03% # Class of committed instruction (Count)
system.cpu0.commit.committedInstType_0::SimdFloatAdd          339      0.00%     77.03% # Class of committed instruction (Count)
system.cpu0.commit.committedInstType_0::SimdFloatAlu            0      0.00%     77.03% # Class of committed instruction (Count)
system.cpu0.commit.committedInstType_0::SimdFloatCmp            1      0.00%     77.03% # Class of committed instruction (Count)
system.cpu0.commit.committedInstType_0::SimdFloatCvt          843      0.00%     77.03% # Class of committed instruction (Count)
system.cpu0.commit.committedInstType_0::SimdFloatDiv           10      0.00%     77.03% # Class of committed instruction (Count)
system.cpu0.commit.committedInstType_0::SimdFloatMisc            0      0.00%     77.03% # Class of committed instruction (Count)
system.cpu0.commit.committedInstType_0::SimdFloatMult          339      0.00%     77.03% # Class of committed instruction (Count)
system.cpu0.commit.committedInstType_0::SimdFloatMultAcc            0      0.00%     77.03% # Class of committed instruction (Count)
system.cpu0.commit.committedInstType_0::SimdFloatMatMultAcc            0      0.00%     77.03% # Class of committed instruction (Count)
system.cpu0.commit.committedInstType_0::SimdFloatSqrt            0      0.00%     77.03% # Class of committed instruction (Count)
system.cpu0.commit.committedInstType_0::SimdReduceAdd            0      0.00%     77.03% # Class of committed instruction (Count)
system.cpu0.commit.committedInstType_0::SimdReduceAlu            0      0.00%     77.03% # Class of committed instruction (Count)
system.cpu0.commit.committedInstType_0::SimdReduceCmp            0      0.00%     77.03% # Class of committed instruction (Count)
system.cpu0.commit.committedInstType_0::SimdFloatReduceAdd            0      0.00%     77.03% # Class of committed instruction (Count)
system.cpu0.commit.committedInstType_0::SimdFloatReduceCmp            0      0.00%     77.03% # Class of committed instruction (Count)
system.cpu0.commit.committedInstType_0::SimdAes            0      0.00%     77.03% # Class of committed instruction (Count)
system.cpu0.commit.committedInstType_0::SimdAesMix            0      0.00%     77.03% # Class of committed instruction (Count)
system.cpu0.commit.committedInstType_0::SimdSha1Hash            0      0.00%     77.03% # Class of committed instruction (Count)
system.cpu0.commit.committedInstType_0::SimdSha1Hash2            0      0.00%     77.03% # Class of committed instruction (Count)
system.cpu0.commit.committedInstType_0::SimdSha256Hash            0      0.00%     77.03% # Class of committed instruction (Count)
system.cpu0.commit.committedInstType_0::SimdSha256Hash2            0      0.00%     77.03% # Class of committed instruction (Count)
system.cpu0.commit.committedInstType_0::SimdShaSigma2            0      0.00%     77.03% # Class of committed instruction (Count)
system.cpu0.commit.committedInstType_0::SimdShaSigma3            0      0.00%     77.03% # Class of committed instruction (Count)
system.cpu0.commit.committedInstType_0::SimdPredAlu            0      0.00%     77.03% # Class of committed instruction (Count)
system.cpu0.commit.committedInstType_0::Matrix            0      0.00%     77.03% # Class of committed instruction (Count)
system.cpu0.commit.committedInstType_0::MatrixMov            0      0.00%     77.03% # Class of committed instruction (Count)
system.cpu0.commit.committedInstType_0::MatrixOP            0      0.00%     77.03% # Class of committed instruction (Count)
system.cpu0.commit.committedInstType_0::MemRead     38765312     15.21%     92.23% # Class of committed instruction (Count)
system.cpu0.commit.committedInstType_0::MemWrite     18016206      7.07%     99.30% # Class of committed instruction (Count)
system.cpu0.commit.committedInstType_0::FloatMemRead       606901      0.24%     99.54% # Class of committed instruction (Count)
system.cpu0.commit.committedInstType_0::FloatMemWrite      1176177      0.46%    100.00% # Class of committed instruction (Count)
system.cpu0.commit.committedInstType_0::IprAccess            0      0.00%    100.00% # Class of committed instruction (Count)
system.cpu0.commit.committedInstType_0::InstPrefetch            0      0.00%    100.00% # Class of committed instruction (Count)
system.cpu0.commit.committedInstType_0::VectorUnitStrideLoad            0      0.00%    100.00% # Class of committed instruction (Count)
system.cpu0.commit.committedInstType_0::VectorUnitStrideStore            0      0.00%    100.00% # Class of committed instruction (Count)
system.cpu0.commit.committedInstType_0::VectorUnitStrideMaskLoad            0      0.00%    100.00% # Class of committed instruction (Count)
system.cpu0.commit.committedInstType_0::VectorUnitStrideMaskStore            0      0.00%    100.00% # Class of committed instruction (Count)
system.cpu0.commit.committedInstType_0::VectorStridedLoad            0      0.00%    100.00% # Class of committed instruction (Count)
system.cpu0.commit.committedInstType_0::VectorStridedStore            0      0.00%    100.00% # Class of committed instruction (Count)
system.cpu0.commit.committedInstType_0::VectorIndexedLoad            0      0.00%    100.00% # Class of committed instruction (Count)
system.cpu0.commit.committedInstType_0::VectorIndexedStore            0      0.00%    100.00% # Class of committed instruction (Count)
system.cpu0.commit.committedInstType_0::VectorUnitStrideFaultOnlyFirstLoad            0      0.00%    100.00% # Class of committed instruction (Count)
system.cpu0.commit.committedInstType_0::VectorWholeRegisterLoad            0      0.00%    100.00% # Class of committed instruction (Count)
system.cpu0.commit.committedInstType_0::VectorWholeRegisterStore            0      0.00%    100.00% # Class of committed instruction (Count)
system.cpu0.commit.committedInstType_0::VectorIntegerArith            0      0.00%    100.00% # Class of committed instruction (Count)
system.cpu0.commit.committedInstType_0::VectorFloatArith            0      0.00%    100.00% # Class of committed instruction (Count)
system.cpu0.commit.committedInstType_0::VectorFloatConvert            0      0.00%    100.00% # Class of committed instruction (Count)
system.cpu0.commit.committedInstType_0::VectorIntegerReduce            0      0.00%    100.00% # Class of committed instruction (Count)
system.cpu0.commit.committedInstType_0::VectorFloatReduce            0      0.00%    100.00% # Class of committed instruction (Count)
system.cpu0.commit.committedInstType_0::VectorMisc            0      0.00%    100.00% # Class of committed instruction (Count)
system.cpu0.commit.committedInstType_0::VectorIntegerExtension            0      0.00%    100.00% # Class of committed instruction (Count)
system.cpu0.commit.committedInstType_0::VectorConfig            0      0.00%    100.00% # Class of committed instruction (Count)
system.cpu0.commit.committedInstType_0::total    254920349                       # Class of committed instruction (Count)
system.cpu0.commit.commitEligibleSamples     16623768                       # number cycles where commit BW limit reached (Cycle)
system.cpu0.commitStats0.numInsts           137140643                       # Number of instructions committed (thread level) (Count)
system.cpu0.commitStats0.numOps             254920349                       # Number of ops (including micro ops) committed (thread level) (Count)
system.cpu0.commitStats0.numInstsNotNOP     137140643                       # Number of instructions committed excluding NOPs or prefetches (Count)
system.cpu0.commitStats0.numOpsNotNOP       254920349                       # Number of Ops (including micro ops) Simulated (Count)
system.cpu0.commitStats0.cpi                 1.715839                       # CPI: cycles per instruction (thread level) ((Cycle/Count))
system.cpu0.commitStats0.ipc                 0.582805                       # IPC: instructions per cycle (thread level) ((Count/Cycle))
system.cpu0.commitStats0.numMemRefs          58564596                       # Number of memory references committed (Count)
system.cpu0.commitStats0.numFpInsts           3653836                       # Number of float instructions (Count)
system.cpu0.commitStats0.numIntInsts        250599411                       # Number of integer instructions (Count)
system.cpu0.commitStats0.numLoadInsts        39372213                       # Number of load instructions (Count)
system.cpu0.commitStats0.numStoreInsts       19192383                       # Number of store instructions (Count)
system.cpu0.commitStats0.numVecInsts                0                       # Number of vector instructions (Count)
system.cpu0.commitStats0.committedInstType::No_OpClass      2717778      1.07%      1.07% # Class of committed instruction. (Count)
system.cpu0.commitStats0.committedInstType::IntAlu    191918069     75.29%     76.35% # Class of committed instruction. (Count)
system.cpu0.commitStats0.committedInstType::IntMult       103235      0.04%     76.39% # Class of committed instruction. (Count)
system.cpu0.commitStats0.committedInstType::IntDiv        28669      0.01%     76.40% # Class of committed instruction. (Count)
system.cpu0.commitStats0.committedInstType::FloatAdd       254756      0.10%     76.50% # Class of committed instruction. (Count)
system.cpu0.commitStats0.committedInstType::FloatCmp            0      0.00%     76.50% # Class of committed instruction. (Count)
system.cpu0.commitStats0.committedInstType::FloatCvt           64      0.00%     76.50% # Class of committed instruction. (Count)
system.cpu0.commitStats0.committedInstType::FloatMult            0      0.00%     76.50% # Class of committed instruction. (Count)
system.cpu0.commitStats0.committedInstType::FloatMultAcc            0      0.00%     76.50% # Class of committed instruction. (Count)
system.cpu0.commitStats0.committedInstType::FloatDiv            0      0.00%     76.50% # Class of committed instruction. (Count)
system.cpu0.commitStats0.committedInstType::FloatMisc            0      0.00%     76.50% # Class of committed instruction. (Count)
system.cpu0.commitStats0.committedInstType::FloatSqrt            0      0.00%     76.50% # Class of committed instruction. (Count)
system.cpu0.commitStats0.committedInstType::SimdAdd        14120      0.01%     76.51% # Class of committed instruction. (Count)
system.cpu0.commitStats0.committedInstType::SimdAddAcc            0      0.00%     76.51% # Class of committed instruction. (Count)
system.cpu0.commitStats0.committedInstType::SimdAlu       368433      0.14%     76.65% # Class of committed instruction. (Count)
system.cpu0.commitStats0.committedInstType::SimdCmp        12642      0.00%     76.66% # Class of committed instruction. (Count)
system.cpu0.commitStats0.committedInstType::SimdCvt       132138      0.05%     76.71% # Class of committed instruction. (Count)
system.cpu0.commitStats0.committedInstType::SimdMisc       799377      0.31%     77.02% # Class of committed instruction. (Count)
system.cpu0.commitStats0.committedInstType::SimdMult            0      0.00%     77.02% # Class of committed instruction. (Count)
system.cpu0.commitStats0.committedInstType::SimdMultAcc            0      0.00%     77.02% # Class of committed instruction. (Count)
system.cpu0.commitStats0.committedInstType::SimdMatMultAcc            0      0.00%     77.02% # Class of committed instruction. (Count)
system.cpu0.commitStats0.committedInstType::SimdShift         4940      0.00%     77.03% # Class of committed instruction. (Count)
system.cpu0.commitStats0.committedInstType::SimdShiftAcc            0      0.00%     77.03% # Class of committed instruction. (Count)
system.cpu0.commitStats0.committedInstType::SimdDiv            0      0.00%     77.03% # Class of committed instruction. (Count)
system.cpu0.commitStats0.committedInstType::SimdSqrt            0      0.00%     77.03% # Class of committed instruction. (Count)
system.cpu0.commitStats0.committedInstType::SimdFloatAdd          339      0.00%     77.03% # Class of committed instruction. (Count)
system.cpu0.commitStats0.committedInstType::SimdFloatAlu            0      0.00%     77.03% # Class of committed instruction. (Count)
system.cpu0.commitStats0.committedInstType::SimdFloatCmp            1      0.00%     77.03% # Class of committed instruction. (Count)
system.cpu0.commitStats0.committedInstType::SimdFloatCvt          843      0.00%     77.03% # Class of committed instruction. (Count)
system.cpu0.commitStats0.committedInstType::SimdFloatDiv           10      0.00%     77.03% # Class of committed instruction. (Count)
system.cpu0.commitStats0.committedInstType::SimdFloatMisc            0      0.00%     77.03% # Class of committed instruction. (Count)
system.cpu0.commitStats0.committedInstType::SimdFloatMult          339      0.00%     77.03% # Class of committed instruction. (Count)
system.cpu0.commitStats0.committedInstType::SimdFloatMultAcc            0      0.00%     77.03% # Class of committed instruction. (Count)
system.cpu0.commitStats0.committedInstType::SimdFloatMatMultAcc            0      0.00%     77.03% # Class of committed instruction. (Count)
system.cpu0.commitStats0.committedInstType::SimdFloatSqrt            0      0.00%     77.03% # Class of committed instruction. (Count)
system.cpu0.commitStats0.committedInstType::SimdReduceAdd            0      0.00%     77.03% # Class of committed instruction. (Count)
system.cpu0.commitStats0.committedInstType::SimdReduceAlu            0      0.00%     77.03% # Class of committed instruction. (Count)
system.cpu0.commitStats0.committedInstType::SimdReduceCmp            0      0.00%     77.03% # Class of committed instruction. (Count)
system.cpu0.commitStats0.committedInstType::SimdFloatReduceAdd            0      0.00%     77.03% # Class of committed instruction. (Count)
system.cpu0.commitStats0.committedInstType::SimdFloatReduceCmp            0      0.00%     77.03% # Class of committed instruction. (Count)
system.cpu0.commitStats0.committedInstType::SimdAes            0      0.00%     77.03% # Class of committed instruction. (Count)
system.cpu0.commitStats0.committedInstType::SimdAesMix            0      0.00%     77.03% # Class of committed instruction. (Count)
system.cpu0.commitStats0.committedInstType::SimdSha1Hash            0      0.00%     77.03% # Class of committed instruction. (Count)
system.cpu0.commitStats0.committedInstType::SimdSha1Hash2            0      0.00%     77.03% # Class of committed instruction. (Count)
system.cpu0.commitStats0.committedInstType::SimdSha256Hash            0      0.00%     77.03% # Class of committed instruction. (Count)
system.cpu0.commitStats0.committedInstType::SimdSha256Hash2            0      0.00%     77.03% # Class of committed instruction. (Count)
system.cpu0.commitStats0.committedInstType::SimdShaSigma2            0      0.00%     77.03% # Class of committed instruction. (Count)
system.cpu0.commitStats0.committedInstType::SimdShaSigma3            0      0.00%     77.03% # Class of committed instruction. (Count)
system.cpu0.commitStats0.committedInstType::SimdPredAlu            0      0.00%     77.03% # Class of committed instruction. (Count)
system.cpu0.commitStats0.committedInstType::Matrix            0      0.00%     77.03% # Class of committed instruction. (Count)
system.cpu0.commitStats0.committedInstType::MatrixMov            0      0.00%     77.03% # Class of committed instruction. (Count)
system.cpu0.commitStats0.committedInstType::MatrixOP            0      0.00%     77.03% # Class of committed instruction. (Count)
system.cpu0.commitStats0.committedInstType::MemRead     38765312     15.21%     92.23% # Class of committed instruction. (Count)
system.cpu0.commitStats0.committedInstType::MemWrite     18016206      7.07%     99.30% # Class of committed instruction. (Count)
system.cpu0.commitStats0.committedInstType::FloatMemRead       606901      0.24%     99.54% # Class of committed instruction. (Count)
system.cpu0.commitStats0.committedInstType::FloatMemWrite      1176177      0.46%    100.00% # Class of committed instruction. (Count)
system.cpu0.commitStats0.committedInstType::IprAccess            0      0.00%    100.00% # Class of committed instruction. (Count)
system.cpu0.commitStats0.committedInstType::InstPrefetch            0      0.00%    100.00% # Class of committed instruction. (Count)
system.cpu0.commitStats0.committedInstType::VectorUnitStrideLoad            0      0.00%    100.00% # Class of committed instruction. (Count)
system.cpu0.commitStats0.committedInstType::VectorUnitStrideStore            0      0.00%    100.00% # Class of committed instruction. (Count)
system.cpu0.commitStats0.committedInstType::VectorUnitStrideMaskLoad            0      0.00%    100.00% # Class of committed instruction. (Count)
system.cpu0.commitStats0.committedInstType::VectorUnitStrideMaskStore            0      0.00%    100.00% # Class of committed instruction. (Count)
system.cpu0.commitStats0.committedInstType::VectorStridedLoad            0      0.00%    100.00% # Class of committed instruction. (Count)
system.cpu0.commitStats0.committedInstType::VectorStridedStore            0      0.00%    100.00% # Class of committed instruction. (Count)
system.cpu0.commitStats0.committedInstType::VectorIndexedLoad            0      0.00%    100.00% # Class of committed instruction. (Count)
system.cpu0.commitStats0.committedInstType::VectorIndexedStore            0      0.00%    100.00% # Class of committed instruction. (Count)
system.cpu0.commitStats0.committedInstType::VectorUnitStrideFaultOnlyFirstLoad            0      0.00%    100.00% # Class of committed instruction. (Count)
system.cpu0.commitStats0.committedInstType::VectorWholeRegisterLoad            0      0.00%    100.00% # Class of committed instruction. (Count)
system.cpu0.commitStats0.committedInstType::VectorWholeRegisterStore            0      0.00%    100.00% # Class of committed instruction. (Count)
system.cpu0.commitStats0.committedInstType::VectorIntegerArith            0      0.00%    100.00% # Class of committed instruction. (Count)
system.cpu0.commitStats0.committedInstType::VectorFloatArith            0      0.00%    100.00% # Class of committed instruction. (Count)
system.cpu0.commitStats0.committedInstType::VectorFloatConvert            0      0.00%    100.00% # Class of committed instruction. (Count)
system.cpu0.commitStats0.committedInstType::VectorIntegerReduce            0      0.00%    100.00% # Class of committed instruction. (Count)
system.cpu0.commitStats0.committedInstType::VectorFloatReduce            0      0.00%    100.00% # Class of committed instruction. (Count)
system.cpu0.commitStats0.committedInstType::VectorMisc            0      0.00%    100.00% # Class of committed instruction. (Count)
system.cpu0.commitStats0.committedInstType::VectorIntegerExtension            0      0.00%    100.00% # Class of committed instruction. (Count)
system.cpu0.commitStats0.committedInstType::VectorConfig            0      0.00%    100.00% # Class of committed instruction. (Count)
system.cpu0.commitStats0.committedInstType::total    254920349                       # Class of committed instruction. (Count)
system.cpu0.commitStats0.committedControl::IsControl     29231314                       # Class of control type instructions committed (Count)
system.cpu0.commitStats0.committedControl::IsDirectControl     25663638                       # Class of control type instructions committed (Count)
system.cpu0.commitStats0.committedControl::IsIndirectControl      3567035                       # Class of control type instructions committed (Count)
system.cpu0.commitStats0.committedControl::IsCondControl     23720677                       # Class of control type instructions committed (Count)
system.cpu0.commitStats0.committedControl::IsUncondControl      5509996                       # Class of control type instructions committed (Count)
system.cpu0.commitStats0.committedControl::IsCall      1777229                       # Class of control type instructions committed (Count)
system.cpu0.commitStats0.committedControl::IsReturn      1777224                       # Class of control type instructions committed (Count)
system.cpu0.dcache.demandHits::cpu0.data     56796501                       # number of demand (read+write) hits (Count)
system.cpu0.dcache.demandHits::total         56796501                       # number of demand (read+write) hits (Count)
system.cpu0.dcache.overallHits::cpu0.data     56797227                       # number of overall hits (Count)
system.cpu0.dcache.overallHits::total        56797227                       # number of overall hits (Count)
system.cpu0.dcache.demandMisses::cpu0.data      2629621                       # number of demand (read+write) misses (Count)
system.cpu0.dcache.demandMisses::total        2629621                       # number of demand (read+write) misses (Count)
system.cpu0.dcache.overallMisses::cpu0.data      2632115                       # number of overall misses (Count)
system.cpu0.dcache.overallMisses::total       2632115                       # number of overall misses (Count)
system.cpu0.dcache.demandMissLatency::cpu0.data 151201766025                       # number of demand (read+write) miss ticks (Tick)
system.cpu0.dcache.demandMissLatency::total 151201766025                       # number of demand (read+write) miss ticks (Tick)
system.cpu0.dcache.overallMissLatency::cpu0.data 151201766025                       # number of overall miss ticks (Tick)
system.cpu0.dcache.overallMissLatency::total 151201766025                       # number of overall miss ticks (Tick)
system.cpu0.dcache.demandAccesses::cpu0.data     59426122                       # number of demand (read+write) accesses (Count)
system.cpu0.dcache.demandAccesses::total     59426122                       # number of demand (read+write) accesses (Count)
system.cpu0.dcache.overallAccesses::cpu0.data     59429342                       # number of overall (read+write) accesses (Count)
system.cpu0.dcache.overallAccesses::total     59429342                       # number of overall (read+write) accesses (Count)
system.cpu0.dcache.demandMissRate::cpu0.data     0.044250                       # miss rate for demand accesses (Ratio)
[...]
system.mem_ctrl.dram.numReads::cpu0.inst       198389                       # Number of read requests responded to by this memory (Count)
system.mem_ctrl.dram.numReads::cpu0.data       975078                       # Number of read requests responded to by this memory (Count)
system.mem_ctrl.dram.numReads::total          1173467                       # Number of read requests responded to by this memory (Count)
system.mem_ctrl.dram.numWrites::writebacks       448734                       # Number of write requests responded to by this memory (Count)
system.mem_ctrl.dram.numWrites::total          448734                       # Number of write requests responded to by this memory (Count)
system.mem_ctrl.dram.bwRead::cpu0.inst       94497154                       # Total read bandwidth from this memory ((Byte/Second))
system.mem_ctrl.dram.bwRead::cpu0.data      464451639                       # Total read bandwidth from this memory ((Byte/Second))
system.mem_ctrl.dram.bwRead::total          558948793                       # Total read bandwidth from this memory ((Byte/Second))
system.mem_ctrl.dram.bwInstRead::cpu0.inst     94497154                       # Instruction read bandwidth from this memory ((Byte/Second))
system.mem_ctrl.dram.bwInstRead::total       94497154                       # Instruction read bandwidth from this memory ((Byte/Second))
system.mem_ctrl.dram.bwWrite::writebacks    213742123                       # Write bandwidth from this memory ((Byte/Second))
system.mem_ctrl.dram.bwWrite::total         213742123                       # Write bandwidth from this memory ((Byte/Second))
system.mem_ctrl.dram.bwTotal::writebacks    213742123                       # Total bandwidth to/from this memory ((Byte/Second))
system.mem_ctrl.dram.bwTotal::cpu0.inst      94497154                       # Total bandwidth to/from this memory ((Byte/Second))
system.mem_ctrl.dram.bwTotal::cpu0.data     464451639                       # Total bandwidth to/from this memory ((Byte/Second))
system.mem_ctrl.dram.bwTotal::total         772690916                       # Total bandwidth to/from this memory ((Byte/Second))
system.mem_ctrl.dram.readBursts               1169614                       # Number of DRAM read bursts (Count)
system.mem_ctrl.dram.writeBursts               448655                       # Number of DRAM write bursts (Count)
system.mem_ctrl.dram.perBankRdBursts::0         77072                       # Per bank write bursts (Count)
system.mem_ctrl.dram.perBankRdBursts::1         83813                       # Per bank write bursts (Count)
system.mem_ctrl.dram.perBankRdBursts::2         67061                       # Per bank write bursts (Count)
system.mem_ctrl.dram.perBankRdBursts::3         65469                       # Per bank write bursts (Count)
system.mem_ctrl.dram.perBankRdBursts::4         77102                       # Per bank write bursts (Count)
system.mem_ctrl.dram.perBankRdBursts::5         68720                       # Per bank write bursts (Count)
system.mem_ctrl.dram.perBankRdBursts::6         68545                       # Per bank write bursts (Count)
system.mem_ctrl.dram.perBankRdBursts::7         78404                       # Per bank write bursts (Count)
system.mem_ctrl.dram.perBankRdBursts::8         85377                       # Per bank write bursts (Count)
system.mem_ctrl.dram.perBankRdBursts::9         68104                       # Per bank write bursts (Count)
system.mem_ctrl.dram.perBankRdBursts::10        71433                       # Per bank write bursts (Count)
system.mem_ctrl.dram.perBankRdBursts::11        66497                       # Per bank write bursts (Count)
system.mem_ctrl.dram.perBankRdBursts::12        75956                       # Per bank write bursts (Count)
system.mem_ctrl.dram.perBankRdBursts::13        72582                       # Per bank write bursts (Count)
system.mem_ctrl.dram.perBankRdBursts::14        73388                       # Per bank write bursts (Count)
system.mem_ctrl.dram.perBankRdBursts::15        70091                       # Per bank write bursts (Count)
system.mem_ctrl.dram.perBankWrBursts::0         25768                       # Per bank write bursts (Count)
system.mem_ctrl.dram.perBankWrBursts::1         31176                       # Per bank write bursts (Count)
system.mem_ctrl.dram.perBankWrBursts::2         26880                       # Per bank write bursts (Count)
system.mem_ctrl.dram.perBankWrBursts::3         26844                       # Per bank write bursts (Count)
system.mem_ctrl.dram.perBankWrBursts::4         28264                       # Per bank write bursts (Count)
system.mem_ctrl.dram.perBankWrBursts::5         28726                       # Per bank write bursts (Count)
system.mem_ctrl.dram.perBankWrBursts::6         27457                       # Per bank write bursts (Count)
system.mem_ctrl.dram.perBankWrBursts::7         28248                       # Per bank write bursts (Count)
system.mem_ctrl.dram.perBankWrBursts::8         32172                       # Per bank write bursts (Count)
system.mem_ctrl.dram.perBankWrBursts::9         27479                       # Per bank write bursts (Count)
system.mem_ctrl.dram.perBankWrBursts::10        27181                       # Per bank write bursts (Count)
system.mem_ctrl.dram.perBankWrBursts::11        27625                       # Per bank write bursts (Count)
system.mem_ctrl.dram.perBankWrBursts::12        28330                       # Per bank write bursts (Count)
system.mem_ctrl.dram.perBankWrBursts::13        28489                       # Per bank write bursts (Count)
system.mem_ctrl.dram.perBankWrBursts::14        28368                       # Per bank write bursts (Count)
system.mem_ctrl.dram.perBankWrBursts::15        25648                       # Per bank write bursts (Count)
system.mem_ctrl.dram.totQLat              17616946223                       # Total ticks spent queuing (Tick)
system.mem_ctrl.dram.totBusLat             5848070000                       # Total ticks spent in databus transfers (Tick)
system.mem_ctrl.dram.totMemAccLat         39547208723                       # Total ticks spent from burst creation until serviced by the DRAM (Tick)
system.mem_ctrl.dram.avgQLat                 15062.19                       # Average queueing delay per DRAM burst ((Tick/Count))
system.mem_ctrl.dram.avgBusLat                5000.00                       # Average bus latency per DRAM burst ((Tick/Count))
system.mem_ctrl.dram.avgMemAccLat            33812.19                       # Average memory access latency per DRAM burst ((Tick/Count))
system.mem_ctrl.dram.readRowHits               798477                       # Number of row buffer hits during reads (Count)
system.mem_ctrl.dram.writeRowHits              201864                       # Number of row buffer hits during writes (Count)
system.mem_ctrl.dram.readRowHitRate             68.27                       # Row buffer hit rate for reads (Ratio)
system.mem_ctrl.dram.writeRowHitRate            44.99                       # Row buffer hit rate for writes (Ratio)
system.mem_ctrl.dram.bytesPerActivate::samples       617916                       # Bytes accessed per row activation (Byte)
system.mem_ctrl.dram.bytesPerActivate::mean   167.607921                       # Bytes accessed per row activation (Byte)
system.mem_ctrl.dram.bytesPerActivate::gmean   113.438313                       # Bytes accessed per row activation (Byte)
system.mem_ctrl.dram.bytesPerActivate::stdev   202.533126                       # Bytes accessed per row activation (Byte)
system.mem_ctrl.dram.bytesPerActivate::0-127       342408     55.41%     55.41% # Bytes accessed per row activation (Byte)
system.mem_ctrl.dram.bytesPerActivate::128-255       160769     26.02%     81.43% # Bytes accessed per row activation (Byte)
system.mem_ctrl.dram.bytesPerActivate::256-383        49280      7.98%     89.41% # Bytes accessed per row activation (Byte)
system.mem_ctrl.dram.bytesPerActivate::384-511        21361      3.46%     92.86% # Bytes accessed per row activation (Byte)
system.mem_ctrl.dram.bytesPerActivate::512-639        11852      1.92%     94.78% # Bytes accessed per row activation (Byte)
system.mem_ctrl.dram.bytesPerActivate::640-767         7591      1.23%     96.01% # Bytes accessed per row activation (Byte)
system.mem_ctrl.dram.bytesPerActivate::768-895         4747      0.77%     96.78% # Bytes accessed per row activation (Byte)
system.mem_ctrl.dram.bytesPerActivate::896-1023         3295      0.53%     97.31% # Bytes accessed per row activation (Byte)
system.mem_ctrl.dram.bytesPerActivate::1024-1151        16613      2.69%    100.00% # Bytes accessed per row activation (Byte)
system.mem_ctrl.dram.bytesPerActivate::total       617916                       # Bytes accessed per row activation (Byte)
system.mem_ctrl.dram.dramBytesRead           74855296                       # Total bytes read (Byte)
system.mem_ctrl.dram.dramBytesWritten        28713920                       # Total bytes written (Byte)
system.mem_ctrl.dram.avgRdBW               557.113522                       # Average DRAM read bandwidth in MiBytes/s ((Byte/Second))
system.mem_ctrl.dram.avgWrBW               213.704493                       # Average DRAM write bandwidth in MiBytes/s ((Byte/Second))
system.mem_ctrl.dram.peakBW                  12800.00                       # Theoretical peak bandwidth in MiByte/s ((Byte/Second))
system.mem_ctrl.dram.busUtil                     6.02                       # Data bus utilization in percentage (Ratio)
system.mem_ctrl.dram.busUtilRead                 4.35                       # Data bus utilization in percentage for reads (Ratio)
system.mem_ctrl.dram.busUtilWrite                1.67                       # Data bus utilization in percentage for writes (Ratio)
system.mem_ctrl.dram.pageHitRate                61.82                       # Row buffer hit rate, read and write combined (Ratio)
system.mem_ctrl.dram.power_state.pwrStateResidencyTicks::UNDEFINED 134362734028                       # Cumulative time (in ticks) in various power states (Tick)
system.mem_ctrl.dram.rank0.actEnergy       2229764880                       # Energy for activate commands per rank (pJ) (Joule)
system.mem_ctrl.dram.rank0.preEnergy       1185121575                       # Energy for precharge commands per rank (pJ) (Joule)
system.mem_ctrl.dram.rank0.readEnergy      4185368040                       # Energy for read commands per rank (pJ) (Joule)
system.mem_ctrl.dram.rank0.writeEnergy     1165954860                       # Energy for write commands per rank (pJ) (Joule)
system.mem_ctrl.dram.rank0.refreshEnergy 10606227840.000002                       # Energy for refresh commands per rank (pJ) (Joule)
system.mem_ctrl.dram.rank0.actBackEnergy  52109998500                       # Energy for active background per rank (pJ) (Joule)
system.mem_ctrl.dram.rank0.preBackEnergy   7713186240                       # Energy for precharge background per rank (pJ) (Joule)
system.mem_ctrl.dram.rank0.actPowerDownEnergy            0                       # Energy for active power-down per rank (pJ) (Joule)
system.mem_ctrl.dram.rank0.prePowerDownEnergy            0                       # Energy for precharge power-down per rank (pJ) (Joule)
system.mem_ctrl.dram.rank0.selfRefreshEnergy            0                       # Energy for self refresh per rank (pJ) (Joule)
system.mem_ctrl.dram.rank0.totalEnergy    79195621935                       # Total energy per rank (pJ) (Joule)
system.mem_ctrl.dram.rank0.averagePower    589.416571                       # Core power per rank (mW) (Watt)
system.mem_ctrl.dram.rank0.totalIdleTime            0                       # Total Idle time Per DRAM Rank (Tick)
system.mem_ctrl.dram.rank0.pwrStateTime::IDLE  19582446388                       # Time in different power states (Tick)
system.mem_ctrl.dram.rank0.pwrStateTime::REF   4486560000                       # Time in different power states (Tick)
system.mem_ctrl.dram.rank0.pwrStateTime::SREF            0                       # Time in different power states (Tick)
system.mem_ctrl.dram.rank0.pwrStateTime::PRE_PDN            0                       # Time in different power states (Tick)
system.mem_ctrl.dram.rank0.pwrStateTime::ACT 110293727640                       # Time in different power states (Tick)
system.mem_ctrl.dram.rank0.pwrStateTime::ACT_PDN            0                       # Time in different power states (Tick)
system.mem_ctrl.dram.rank1.actEnergy       2182241040                       # Energy for activate commands per rank (pJ) (Joule)
system.mem_ctrl.dram.rank1.preEnergy       1159869645                       # Energy for precharge commands per rank (pJ) (Joule)
system.mem_ctrl.dram.rank1.readEnergy      4165675920                       # Energy for read commands per rank (pJ) (Joule)
system.mem_ctrl.dram.rank1.writeEnergy     1176024240                       # Energy for write commands per rank (pJ) (Joule)
system.mem_ctrl.dram.rank1.refreshEnergy 10606227840.000002                       # Energy for refresh commands per rank (pJ) (Joule)
system.mem_ctrl.dram.rank1.actBackEnergy  51636864300                       # Energy for active background per rank (pJ) (Joule)
system.mem_ctrl.dram.rank1.preBackEnergy   8111615040                       # Energy for precharge background per rank (pJ) (Joule)
system.mem_ctrl.dram.rank1.actPowerDownEnergy            0                       # Energy for active power-down per rank (pJ) (Joule)
system.mem_ctrl.dram.rank1.prePowerDownEnergy            0                       # Energy for precharge power-down per rank (pJ) (Joule)
system.mem_ctrl.dram.rank1.selfRefreshEnergy            0                       # Energy for self refresh per rank (pJ) (Joule)
system.mem_ctrl.dram.rank1.totalEnergy    79038518025                       # Total energy per rank (pJ) (Joule)
system.mem_ctrl.dram.rank1.averagePower    588.247319                       # Core power per rank (mW) (Watt)
system.mem_ctrl.dram.rank1.totalIdleTime            0                       # Total Idle time Per DRAM Rank (Tick)
system.mem_ctrl.dram.rank1.pwrStateTime::IDLE  20619679301                       # Time in different power states (Tick)
system.mem_ctrl.dram.rank1.pwrStateTime::REF   4486560000                       # Time in different power states (Tick)
system.mem_ctrl.dram.rank1.pwrStateTime::SREF            0                       # Time in different power states (Tick)
system.mem_ctrl.dram.rank1.pwrStateTime::PRE_PDN            0                       # Time in different power states (Tick)
system.mem_ctrl.dram.rank1.pwrStateTime::ACT 109256494727                       # Time in different power states (Tick)
system.mem_ctrl.dram.rank1.pwrStateTime::ACT_PDN            0                       # Time in different power states (Tick)
system.mem_ctrl.power_state.pwrStateResidencyTicks::UNDEFINED 134362734028                       # Cumulative time (in ticks) in various power states (Tick)
system.membus.transDist::ReadResp             1047860                       # Transaction distribution (Count)
system.membus.transDist::WritebackDirty        448734                       # Transaction distribution (Count)
system.membus.transDist::CleanEvict            720104                       # Transaction distribution (Count)
system.membus.transDist::UpgradeReq               390                       # Transaction distribution (Count)
system.membus.transDist::ReadExReq             125607                       # Transaction distribution (Count)
system.membus.transDist::ReadExResp            125607                       # Transaction distribution (Count)
system.membus.transDist::ReadSharedReq        1047860                       # Transaction distribution (Count)
system.membus.pktCount_system.l2cache.mem_side_port::system.mem_ctrl.port      3516162                       # Packet count per connected requestor and responder (Count)
system.membus.pktCount_system.l2cache.mem_side_port::total      3516162                       # Packet count per connected requestor and responder (Count)
system.membus.pktCount::total                 3516162                       # Packet count per connected requestor and responder (Count)
system.membus.pktSize_system.l2cache.mem_side_port::system.mem_ctrl.port    103820864                       # Cumulative packet size per connected requestor and responder (Byte)
system.membus.pktSize_system.l2cache.mem_side_port::total    103820864                       # Cumulative packet size per connected requestor and responder (Byte)
system.membus.pktSize::total                103820864                       # Cumulative packet size per connected requestor and responder (Byte)
system.membus.snoops                               65                       # Total snoops (Count)
system.membus.snoopTraffic                          0                       # Total snoop traffic (Byte)
system.membus.snoopFanout::samples            1173857                       # Request fanout histogram (Count)
system.membus.snoopFanout::mean                     0                       # Request fanout histogram (Count)
system.membus.snoopFanout::stdev                    0                       # Request fanout histogram (Count)
system.membus.snoopFanout::underflows               0      0.00%      0.00% # Request fanout histogram (Count)
system.membus.snoopFanout::0                  1173857    100.00%    100.00% # Request fanout histogram (Count)
system.membus.snoopFanout::1                        0      0.00%    100.00% # Request fanout histogram (Count)
system.membus.snoopFanout::overflows                0      0.00%    100.00% # Request fanout histogram (Count)
system.membus.snoopFanout::min_value                0                       # Request fanout histogram (Count)
system.membus.snoopFanout::max_value                0                       # Request fanout histogram (Count)
system.membus.snoopFanout::total              1173857                       # Request fanout histogram (Count)
system.membus.power_state.pwrStateResidencyTicks::UNDEFINED 134362734028                       # Cumulative time (in ticks) in various power states (Tick)
system.membus.reqLayer8.occupancy          2362550186                       # Layer occupancy (ticks) (Tick)
system.membus.reqLayer8.utilization               0.0                       # Layer utilization (Ratio)
system.membus.respLayer0.occupancy         3562289228                       # Layer occupancy (ticks) (Tick)
system.membus.respLayer0.utilization              0.0                       # Layer utilization (Ratio)
system.membus.snoop_filter.totRequests        2342695                       # Total number of requests made to the snoop filter. (Count)
system.membus.snoop_filter.hitSingleRequests      1169759                       # Number of requests hitting in the snoop filter with a single holder of the requested data. (Count)
system.membus.snoop_filter.hitMultiRequests            0                       # Number of requests hitting in the snoop filter with multiple (>1) holders of the requested data. (Count)
system.membus.snoop_filter.totSnoops                0                       # Total number of snoops made to the snoop filter. (Count)
system.membus.snoop_filter.hitSingleSnoops            0                       # Number of snoops hitting in the snoop filter with a single holder of the requested data. (Count)
system.membus.snoop_filter.hitMultiSnoops            0                       # Number of snoops hitting in the snoop filter with multiple (>1) holders of the requested data. (Count)
system.workload.inst.arm                            0                       # number of arm instructions executed (Count)
system.workload.inst.quiesce                        0                       # number of quiesce instructions executed (Count)

---------- End Simulation Statistics   ----------
