
---------- Begin Simulation Statistics ----------
simSeconds                                   0.001874                       # Number of seconds simulated (Second)
simTicks                                   1874187672                       # Number of ticks simulated (Tick)
finalTick                                  1874187672                       # Number of ticks from beginning of simulation (restored from checkpoints and never reset) (Tick)
simFreq                                  1000000000000                       # The number of ticks per simulated second ((Tick/Second))
hostSeconds                                     21.06                       # Real time elapsed on the host (Second)
hostTickRate                                 88978639                       # The number of ticks simulated per host second (ticks/s) ((Tick/Second))
hostMemory                                    8522952                       # Number of bytes of host memory used (Byte)
simInsts                                      4848347                       # Number of instructions simulated (Count)
simOps                                        4855231                       # Number of ops (including micro ops) simulated (Count)
hostInstRate                                   230177                       # Simulator instruction rate (inst/s) ((Count/Second))
hostOpRate                                     230504                       # Simulator op (including micro ops) rate (op/s) ((Count/Second))
system.clk_domain.clock                           588                       # Clock period in ticks (Tick)
system.clk_domain.voltage_domain.voltage     1.100000                       # Voltage in Volts (Volt)
system.cpu.numCycles                          3187395                       # Number of cpu cycles simulated (Cycle)
system.cpu.numWorkItemsStarted                      0                       # Number of work items this cpu started (Count)
system.cpu.numWorkItemsCompleted                    0                       # Number of work items this cpu completed (Count)
system.cpu.instsAdded                         4948685                       # Number of instructions added to the IQ (excludes non-spec) (Count)
system.cpu.nonSpecInstsAdded                      192                       # Number of non-speculative instructions added to the IQ (Count)
system.cpu.instsIssued                        4916244                       # Number of instructions issued (Count)
system.cpu.squashedInstsIssued                   1700                       # Number of squashed instructions issued (Count)
system.cpu.squashedInstsExamined                93645                       # Number of squashed instructions iterated over during squash; mainly for profiling (Count)
system.cpu.squashedOperandsExamined             69141                       # Number of squashed operands that are examined and possibly removed from graph (Count)
system.cpu.squashedNonSpecRemoved                  48                       # Number of squashed non-spec instructions that were removed (Count)
system.cpu.numIssuedDist::samples             3133145                       # Number of insts issued each cycle (Count)
system.cpu.numIssuedDist::mean               1.569108                       # Number of insts issued each cycle (Count)
system.cpu.numIssuedDist::stdev              0.891343                       # Number of insts issued each cycle (Count)
system.cpu.numIssuedDist::underflows                0      0.00%      0.00% # Number of insts issued each cycle (Count)
system.cpu.numIssuedDist::0                    325065     10.38%     10.38% # Number of insts issued each cycle (Count)
system.cpu.numIssuedDist::1                   1206021     38.49%     48.87% # Number of insts issued each cycle (Count)
system.cpu.numIssuedDist::2                   1125251     35.91%     84.78% # Number of insts issued each cycle (Count)
system.cpu.numIssuedDist::3                    447511     14.28%     99.06% # Number of insts issued each cycle (Count)
system.cpu.numIssuedDist::4                     29297      0.94%    100.00% # Number of insts issued each cycle (Count)
system.cpu.numIssuedDist::5                         0      0.00%    100.00% # Number of insts issued each cycle (Count)
system.cpu.numIssuedDist::6                         0      0.00%    100.00% # Number of insts issued each cycle (Count)
system.cpu.numIssuedDist::7                         0      0.00%    100.00% # Number of insts issued each cycle (Count)
system.cpu.numIssuedDist::8                         0      0.00%    100.00% # Number of insts issued each cycle (Count)
system.cpu.numIssuedDist::overflows                 0      0.00%    100.00% # Number of insts issued each cycle (Count)
system.cpu.numIssuedDist::min_value                 0                       # Number of insts issued each cycle (Count)
system.cpu.numIssuedDist::max_value                 4                       # Number of insts issued each cycle (Count)
system.cpu.numIssuedDist::total               3133145                       # Number of insts issued each cycle (Count)
system.cpu.statFuBusy::No_OpClass              872459      1.89%      1.89% # attempts to use FU when none available (Count)
system.cpu.statFuBusy::IntAlu                  872459      1.89%      3.77% # attempts to use FU when none available (Count)
system.cpu.statFuBusy::IntMult                 872459      1.89%      5.66% # attempts to use FU when none available (Count)
system.cpu.statFuBusy::IntDiv                  872459      1.89%      7.55% # attempts to use FU when none available (Count)
system.cpu.statFuBusy::FloatAdd                872459      1.89%      9.43% # attempts to use FU when none available (Count)
system.cpu.statFuBusy::FloatCmp                872459      1.89%     11.32% # attempts to use FU when none available (Count)
system.cpu.statFuBusy::FloatCvt                872459      1.89%     13.21% # attempts to use FU when none available (Count)
system.cpu.statFuBusy::FloatMult               872459      1.89%     15.09% # attempts to use FU when none available (Count)
system.cpu.statFuBusy::FloatMultAcc            872459      1.89%     16.98% # attempts to use FU when none available (Count)
system.cpu.statFuBusy::FloatDiv                872459      1.89%     18.87% # attempts to use FU when none available (Count)
system.cpu.statFuBusy::FloatMisc               872459      1.89%     20.75% # attempts to use FU when none available (Count)
system.cpu.statFuBusy::FloatSqrt               872459      1.89%     22.64% # attempts to use FU when none available (Count)
system.cpu.statFuBusy::SimdAdd                 872459      1.89%     24.53% # attempts to use FU when none available (Count)
system.cpu.statFuBusy::SimdAddAcc              872459      1.89%     26.42% # attempts to use FU when none available (Count)
system.cpu.statFuBusy::SimdAlu                 872459      1.89%     28.30% # attempts to use FU when none available (Count)
system.cpu.statFuBusy::SimdCmp                 872459      1.89%     30.19% # attempts to use FU when none available (Count)
system.cpu.statFuBusy::SimdCvt                 872459      1.89%     32.08% # attempts to use FU when none available (Count)
system.cpu.statFuBusy::SimdMisc                872459      1.89%     33.96% # attempts to use FU when none available (Count)
system.cpu.statFuBusy::SimdMult                872459      1.89%     35.85% # attempts to use FU when none available (Count)
system.cpu.statFuBusy::SimdMultAcc             872459      1.89%     37.74% # attempts to use FU when none available (Count)
system.cpu.statFuBusy::SimdShift               872459      1.89%     39.62% # attempts to use FU when none available (Count)
system.cpu.statFuBusy::SimdShiftAcc            872459      1.89%     41.51% # attempts to use FU when none available (Count)
system.cpu.statFuBusy::SimdDiv                 872459      1.89%     43.40% # attempts to use FU when none available (Count)
system.cpu.statFuBusy::SimdSqrt                872459      1.89%     45.28% # attempts to use FU when none available (Count)
system.cpu.statFuBusy::SimdFloatAdd            872459      1.89%     47.17% # attempts to use FU when none available (Count)
system.cpu.statFuBusy::SimdFloatAlu            872459      1.89%     49.06% # attempts to use FU when none available (Count)
system.cpu.statFuBusy::SimdFloatCmp            872459      1.89%     50.94% # attempts to use FU when none available (Count)
system.cpu.statFuBusy::SimdFloatCvt            872459      1.89%     52.83% # attempts to use FU when none available (Count)
system.cpu.statFuBusy::SimdFloatDiv            872459      1.89%     54.72% # attempts to use FU when none available (Count)
system.cpu.statFuBusy::SimdFloatMisc           872459      1.89%     56.60% # attempts to use FU when none available (Count)
system.cpu.statFuBusy::SimdFloatMult           872459      1.89%     58.49% # attempts to use FU when none available (Count)
system.cpu.statFuBusy::SimdFloatMultAcc        872459      1.89%     60.38% # attempts to use FU when none available (Count)
system.cpu.statFuBusy::SimdFloatSqrt           872459      1.89%     62.26% # attempts to use FU when none available (Count)
system.cpu.statFuBusy::SimdReduceAdd           872459      1.89%     64.15% # attempts to use FU when none available (Count)
system.cpu.statFuBusy::SimdReduceAlu           872459      1.89%     66.04% # attempts to use FU when none available (Count)
system.cpu.statFuBusy::SimdReduceCmp           872459      1.89%     67.92% # attempts to use FU when none available (Count)
system.cpu.statFuBusy::SimdFloatReduceAdd       872459      1.89%     69.81% # attempts to use FU when none available (Count)
system.cpu.statFuBusy::SimdFloatReduceCmp       872459      1.89%     71.70% # attempts to use FU when none available (Count)
system.cpu.statFuBusy::SimdAes                 872459      1.89%     73.58% # attempts to use FU when none available (Count)
system.cpu.statFuBusy::SimdAesMix              872459      1.89%     75.47% # attempts to use FU when none available (Count)
system.cpu.statFuBusy::SimdSha1Hash            872459      1.89%     77.36% # attempts to use FU when none available (Count)
system.cpu.statFuBusy::SimdSha1Hash2           872459      1.89%     79.25% # attempts to use FU when none available (Count)
system.cpu.statFuBusy::SimdSha256Hash          872459      1.89%     81.13% # attempts to use FU when none available (Count)
system.cpu.statFuBusy::SimdSha256Hash2         872459      1.89%     83.02% # attempts to use FU when none available (Count)
system.cpu.statFuBusy::SimdShaSigma2           872459      1.89%     84.91% # attempts to use FU when none available (Count)
system.cpu.statFuBusy::SimdShaSigma3           872459      1.89%     86.79% # attempts to use FU when none available (Count)
system.cpu.statFuBusy::SimdPredAlu             872459      1.89%     88.68% # attempts to use FU when none available (Count)
system.cpu.statFuBusy::MemRead                 872459      1.89%     90.57% # attempts to use FU when none available (Count)
system.cpu.statFuBusy::MemWrite                872459      1.89%     92.45% # attempts to use FU when none available (Count)
system.cpu.statFuBusy::FloatMemRead            872459      1.89%     94.34% # attempts to use FU when none available (Count)
system.cpu.statFuBusy::FloatMemWrite           872459      1.89%     96.23% # attempts to use FU when none available (Count)
system.cpu.statFuBusy::IprAccess               872459      1.89%     98.11% # attempts to use FU when none available (Count)
system.cpu.statFuBusy::InstPrefetch            872459      1.89%    100.00% # attempts to use FU when none available (Count)
system.cpu.statIssuedInstType_0::No_OpClass      4916244      1.89%      1.89% # Number of instructions issued per FU type, per thread (Count)
system.cpu.statIssuedInstType_0::IntAlu       4916244      1.89%      3.77% # Number of instructions issued per FU type, per thread (Count)
system.cpu.statIssuedInstType_0::IntMult      4916244      1.89%      5.66% # Number of instructions issued per FU type, per thread (Count)
system.cpu.statIssuedInstType_0::IntDiv       4916244      1.89%      7.55% # Number of instructions issued per FU type, per thread (Count)
system.cpu.statIssuedInstType_0::FloatAdd      4916244      1.89%      9.43% # Number of instructions issued per FU type, per thread (Count)
system.cpu.statIssuedInstType_0::FloatCmp      4916244      1.89%     11.32% # Number of instructions issued per FU type, per thread (Count)
system.cpu.statIssuedInstType_0::FloatCvt      4916244      1.89%     13.21% # Number of instructions issued per FU type, per thread (Count)
system.cpu.statIssuedInstType_0::FloatMult      4916244      1.89%     15.09% # Number of instructions issued per FU type, per thread (Count)
system.cpu.statIssuedInstType_0::FloatMultAcc      4916244      1.89%     16.98% # Number of instructions issued per FU type, per thread (Count)
system.cpu.statIssuedInstType_0::FloatDiv      4916244      1.89%     18.87% # Number of instructions issued per FU type, per thread (Count)
system.cpu.statIssuedInstType_0::FloatMisc      4916244      1.89%     20.75% # Number of instructions issued per FU type, per thread (Count)
system.cpu.statIssuedInstType_0::FloatSqrt      4916244      1.89%     22.64% # Number of instructions issued per FU type, per thread (Count)
system.cpu.statIssuedInstType_0::SimdAdd      4916244      1.89%     24.53% # Number of instructions issued per FU type, per thread (Count)
system.cpu.statIssuedInstType_0::SimdAddAcc      4916244      1.89%     26.42% # Number of instructions issued per FU type, per thread (Count)
system.cpu.statIssuedInstType_0::SimdAlu      4916244      1.89%     28.30% # Number of instructions issued per FU type, per thread (Count)
system.cpu.statIssuedInstType_0::SimdCmp      4916244      1.89%     30.19% # Number of instructions issued per FU type, per thread (Count)
system.cpu.statIssuedInstType_0::SimdCvt      4916244      1.89%     32.08% # Number of instructions issued per FU type, per thread (Count)
system.cpu.statIssuedInstType_0::SimdMisc      4916244      1.89%     33.96% # Number of instructions issued per FU type, per thread (Count)
system.cpu.statIssuedInstType_0::SimdMult      4916244      1.89%     35.85% # Number of instructions issued per FU type, per thread (Count)
system.cpu.statIssuedInstType_0::SimdMultAcc      4916244      1.89%     37.74% # Number of instructions issued per FU type, per thread (Count)
system.cpu.statIssuedInstType_0::SimdShift      4916244      1.89%     39.62% # Number of instructions issued per FU type, per thread (Count)
system.cpu.statIssuedInstType_0::SimdShiftAcc      4916244      1.89%     41.51% # Number of instructions issued per FU type, per thread (Count)
system.cpu.statIssuedInstType_0::SimdDiv      4916244      1.89%     43.40% # Number of instructions issued per FU type, per thread (Count)
system.cpu.statIssuedInstType_0::SimdSqrt      4916244      1.89%     45.28% # Number of instructions issued per FU type, per thread (Count)
system.cpu.statIssuedInstType_0::SimdFloatAdd      4916244      1.89%     47.17% # Number of instructions issued per FU type, per thread (Count)
system.cpu.statIssuedInstType_0::SimdFloatAlu      4916244      1.89%     49.06% # Number of instructions issued per FU type, per thread (Count)
system.cpu.statIssuedInstType_0::SimdFloatCmp      4916244      1.89%     50.94% # Number of instructions issued per FU type, per thread (Count)
system.cpu.statIssuedInstType_0::SimdFloatCvt      4916244      1.89%     52.83% # Number of instructions issued per FU type, per thread (Count)
system.cpu.statIssuedInstType_0::SimdFloatDiv      4916244      1.89%     54.72% # Number of instructions issued per FU type, per thread (Count)
system.cpu.statIssuedInstType_0::SimdFloatMisc      4916244      1.89%     56.60% # Number of instructions issued per FU type, per thread (Count)
system.cpu.statIssuedInstType_0::SimdFloatMult      4916244      1.89%     58.49% # Number of instructions issued per FU type, per thread (Count)
system.cpu.statIssuedInstType_0::SimdFloatMultAcc      4916244      1.89%     60.38% # Number of instructions issued per FU type, per thread (Count)
system.cpu.statIssuedInstType_0::SimdFloatSqrt      4916244      1.89%     62.26% # Number of instructions issued per FU type, per thread (Count)
system.cpu.statIssuedInstType_0::SimdReduceAdd      4916244      1.89%     64.15% # Number of instructions issued per FU type, per thread (Count)
system.cpu.statIssuedInstType_0::SimdReduceAlu      4916244      1.89%     66.04% # Number of instructions issued per FU type, per thread (Count)
system.cpu.statIssuedInstType_0::SimdReduceCmp      4916244      1.89%     67.92% # Number of instructions issued per FU type, per thread (Count)
system.cpu.statIssuedInstType_0::SimdFloatReduceAdd      4916244      1.89%     69.81% # Number of instructions issued per FU type, per thread (Count)
system.cpu.statIssuedInstType_0::SimdFloatReduceCmp      4916244      1.89%     71.70% # Number of instructions issued per FU type, per thread (Count)
system.cpu.statIssuedInstType_0::SimdAes      4916244      1.89%     73.58% # Number of instructions issued per FU type, per thread (Count)
system.cpu.statIssuedInstType_0::SimdAesMix      4916244      1.89%     75.47% # Number of instructions issued per FU type, per thread (Count)
system.cpu.statIssuedInstType_0::SimdSha1Hash      4916244      1.89%     77.36% # Number of instructions issued per FU type, per thread (Count)
system.cpu.statIssuedInstType_0::SimdSha1Hash2      4916244      1.89%     79.25% # Number of instructions issued per FU type, per thread (Count)
system.cpu.statIssuedInstType_0::SimdSha256Hash      4916244      1.89%     81.13% # Number of instructions issued per FU type, per thread (Count)
system.cpu.statIssuedInstType_0::SimdSha256Hash2      4916244      1.89%     83.02% # Number of instructions issued per FU type, per thread (Count)
system.cpu.statIssuedInstType_0::SimdShaSigma2      4916244      1.89%     84.91% # Number of instructions issued per FU type, per thread (Count)
system.cpu.statIssuedInstType_0::SimdShaSigma3      4916244      1.89%     86.79% # Number of instructions issued per FU type, per thread (Count)
system.cpu.statIssuedInstType_0::SimdPredAlu      4916244      1.89%     88.68% # Number of instructions issued per FU type, per thread (Count)
system.cpu.statIssuedInstType_0::MemRead      4916244      1.89%     90.57% # Number of instructions issued per FU type, per thread (Count)
system.cpu.statIssuedInstType_0::MemWrite      4916244      1.89%     92.45% # Number of instructions issued per FU type, per thread (Count)
system.cpu.statIssuedInstType_0::FloatMemRead      4916244      1.89%     94.34% # Number of instructions issued per FU type, per thread (Count)
system.cpu.statIssuedInstType_0::FloatMemWrite      4916244      1.89%     96.23% # Number of instructions issued per FU type, per thread (Count)
system.cpu.statIssuedInstType_0::IprAccess      4916244      1.89%     98.11% # Number of instructions issued per FU type, per thread (Count)
system.cpu.statIssuedInstType_0::InstPrefetch      4916244      1.89%    100.00% # Number of instructions issued per FU type, per thread (Count)
system.cpu.statIssuedInstType_0::total      260560932                       # Number of instructions issued per FU type, per thread (Count)
system.cpu.issueRate                         1.542402                       # Inst issue rate ((Count/Cycle))
system.cpu.fuBusy                              872459                       # FU busy when requested (Count)
system.cpu.fuBusyRate                        0.177465                       # FU busy rate (busy events/executed inst) ((Count/Count))
system.cpu.intInstQueueReads                 13756260                       # Number of integer instruction queue reads (Count)
system.cpu.intInstQueueWrites                 5000764                       # Number of integer instruction queue writes (Count)
system.cpu.intInstQueueWakeupAccesses         4862930                       # Number of integer instruction queue wakeup accesses (Count)
system.cpu.fpInstQueueReads                         0                       # Number of floating instruction queue reads (Count)
system.cpu.fpInstQueueWrites                        0                       # Number of floating instruction queue writes (Count)
system.cpu.fpInstQueueWakeupAccesses                0                       # Number of floating instruction queue wakeup accesses (Count)
system.cpu.vecInstQueueReads                    83532                       # Number of vector instruction queue reads (Count)
system.cpu.vecInstQueueWrites                   42777                       # Number of vector instruction queue writes (Count)
system.cpu.vecInstQueueWakeupAccesses           39911                       # Number of vector instruction queue wakeup accesses (Count)
system.cpu.intAluAccesses                     5745674                       # Number of integer alu accesses (Count)
system.cpu.fpAluAccesses                            0                       # Number of floating point alu accesses (Count)
system.cpu.vecAluAccesses                       42938                       # Number of vector alu accesses (Count)
system.cpu.idleCycles                               0                       # Number of cycles IEW is idle (Cycle)
system.cpu.squashCycles                          5066                       # Number of cycles IEW is squashing (Cycle)
system.cpu.blockCycles                          20937                       # Number of cycles IEW is blocking (Cycle)
system.cpu.unblockCycles                         2131                       # Number of cycles IEW is unblocking (Cycle)
system.cpu.dispatchedInsts                    4949412                       # Number of instructions dispatched to IQ (Count)
system.cpu.dispSquashedInsts                        0                       # Number of squashed instructions skipped by dispatch (Count)
system.cpu.dispLoadInsts                      1964889                       # Number of dispatched load instructions (Count)
system.cpu.dispStoreInsts                      715924                       # Number of dispatched store instructions (Count)
system.cpu.dispNonSpecInsts                       191                       # Number of dispatched non-speculative instructions (Count)
system.cpu.iqFullEvents                           905                       # Number of times the IQ has become full, causing a stall (Count)
system.cpu.lsqFullEvents                          380                       # Number of times the LSQ has become full, causing a stall (Count)
system.cpu.memOrderViolationEvents               1031                       # Number of memory order violations (Count)
system.cpu.predictedTakenIncorrect               1377                       # Number of branches that were predicted taken incorrectly (Count)
system.cpu.predictedNotTakenIncorrect            2875                       # Number of branches that were predicted not taken incorrectly (Count)
system.cpu.branchMispredicts                     4252                       # Number of branch mispredicts detected at execute (Count)
system.cpu.numInsts                           4907400                       # Number of executed instructions (Count)
system.cpu.numLoadInsts                       1953228                       # Number of load instructions executed (Count)
system.cpu.numSquashedInsts                      8844                       # Number of squashed instructions skipped in execute (Count)
system.cpu.numSwp                                   0                       # Number of swp insts executed (Count)
system.cpu.numNop                                 535                       # Number of nop insts executed (Count)
system.cpu.numRefs                            2663140                       # Number of memory reference insts executed (Count)
system.cpu.numBranches                          92027                       # Number of branches executed (Count)
system.cpu.numStoreInsts                       709912                       # Number of stores executed (Count)
system.cpu.numRate                           1.539627                       # Inst execution rate ((Count/Cycle))
system.cpu.instsToCommit                      4903928                       # Cumulative count of insts sent to commit (Count)
system.cpu.writebackCount                     4902841                       # Cumulative count of insts written-back (Count)
system.cpu.producerInst                       4078362                       # Number of instructions producing a value (Count)
system.cpu.consumerInst                       4481027                       # Number of instructions consuming a value (Count)
system.cpu.wbRate                            1.538197                       # Insts written-back per cycle ((Count/Cycle))
system.cpu.wbFanout                          0.910140                       # Average fanout of values written-back ((Count/Count))
system.cpu.timesIdled                             722                       # Number of times that the entire CPU went into an idle state and unscheduled itself (Count)
system.cpu.idleCycles                           54250                       # Total number of cycles that the CPU has spent unscheduled due to idling (Cycle)
system.cpu.committedInsts                     4848347                       # Number of Instructions Simulated (Count)
system.cpu.committedOps                       4855231                       # Number of Ops (including micro ops) Simulated (Count)
system.cpu.cpi                               0.657419                       # CPI: Cycles Per Instruction ((Cycle/Count))
system.cpu.totalCpi                          0.657419                       # CPI: Total CPI of All Threads ((Cycle/Count))
system.cpu.ipc                               1.521100                       # IPC: Instructions Per Cycle ((Count/Cycle))
system.cpu.totalIpc                          1.521100                       # IPC: Total IPC of All Threads ((Count/Cycle))
system.cpu.intRegfileReads                    6871052                       # Number of integer regfile reads (Count)
system.cpu.intRegfileWrites                   4071382                       # Number of integer regfile writes (Count)
system.cpu.vecRegfileReads                      35777                       # number of vector regfile reads (Count)
system.cpu.vecRegfileWrites                     31118                       # number of vector regfile writes (Count)
system.cpu.ccRegfileReads                      252657                       # number of cc regfile reads (Count)
system.cpu.ccRegfileWrites                     256478                       # number of cc regfile writes (Count)
system.cpu.miscRegfileReads                  12482510                       # number of misc regfile reads (Count)
system.cpu.miscRegfileWrites                    19925                       # number of misc regfile writes (Count)
system.cpu.MemDepUnit__0.insertedLoads        1964889                       # Number of loads inserted to the mem dependence unit. (Count)
system.cpu.MemDepUnit__0.insertedStores        715924                       # Number of stores inserted to the mem dependence unit. (Count)
system.cpu.MemDepUnit__0.conflictingLoads       697204                       # Number of conflicting loads. (Count)
system.cpu.MemDepUnit__0.conflictingStores        41752                       # Number of conflicting stores. (Count)
system.cpu.MemDepUnit__1.insertedLoads              0                       # Number of loads inserted to the mem dependence unit. (Count)
system.cpu.MemDepUnit__1.insertedStores             0                       # Number of stores inserted to the mem dependence unit. (Count)
system.cpu.MemDepUnit__1.conflictingLoads            0                       # Number of conflicting loads. (Count)
system.cpu.MemDepUnit__1.conflictingStores            0                       # Number of conflicting stores. (Count)
system.cpu.MemDepUnit__2.insertedLoads              0                       # Number of loads inserted to the mem dependence unit. (Count)
system.cpu.MemDepUnit__2.insertedStores             0                       # Number of stores inserted to the mem dependence unit. (Count)
system.cpu.MemDepUnit__2.conflictingLoads            0                       # Number of conflicting loads. (Count)
system.cpu.MemDepUnit__2.conflictingStores            0                       # Number of conflicting stores. (Count)
system.cpu.MemDepUnit__3.insertedLoads              0                       # Number of loads inserted to the mem dependence unit. (Count)
system.cpu.MemDepUnit__3.insertedStores             0                       # Number of stores inserted to the mem dependence unit. (Count)
system.cpu.MemDepUnit__3.conflictingLoads            0                       # Number of conflicting loads. (Count)
system.cpu.MemDepUnit__3.conflictingStores            0                       # Number of conflicting stores. (Count)
system.cpu.branchPred.lookups                  104851                       # Number of BP lookups (Count)
system.cpu.branchPred.condPredicted             92111                       # Number of conditional branches predicted (Count)
system.cpu.branchPred.condIncorrect              4468                       # Number of conditional branches incorrect (Count)
system.cpu.branchPred.BTBLookups                85408                       # Number of BTB lookups (Count)
system.cpu.branchPred.BTBHits                   84285                       # Number of BTB hits (Count)
system.cpu.branchPred.BTBHitRatio            0.986851                       # BTB Hit Ratio (Ratio)
system.cpu.branchPred.RASUsed                    2636                       # Number of times the RAS was used to get a target. (Count)
system.cpu.branchPred.RASIncorrect                  1                       # Number of incorrect RAS predictions. (Count)
system.cpu.branchPred.indirectLookups             152                       # Number of indirect predictor lookups. (Count)
system.cpu.branchPred.indirectHits                  7                       # Number of indirect target hits. (Count)
system.cpu.branchPred.indirectMisses              145                       # Number of indirect misses. (Count)
system.cpu.branchPred.indirectMispredicted           61                       # Number of mispredicted indirect branches. (Count)
system.cpu.commit.commitSquashedInsts           86041                       # The number of squashed insts skipped by commit (Count)
system.cpu.commit.commitNonSpecStalls             144                       # The number of times commit has been forced to stall to communicate backwards (Count)
system.cpu.commit.branchMispredicts              4072                       # The number of times a branch was mispredicted (Count)
system.cpu.commit.numCommittedDist::samples      3119575                       # Number of insts commited each cycle (Count)
system.cpu.commit.numCommittedDist::mean     1.556389                       # Number of insts commited each cycle (Count)
system.cpu.commit.numCommittedDist::stdev     2.283852                       # Number of insts commited each cycle (Count)
system.cpu.commit.numCommittedDist::underflows            0      0.00%      0.00% # Number of insts commited each cycle (Count)
system.cpu.commit.numCommittedDist::0         1128078     36.16%     36.16% # Number of insts commited each cycle (Count)
system.cpu.commit.numCommittedDist::1         1183020     37.92%     74.08% # Number of insts commited each cycle (Count)
system.cpu.commit.numCommittedDist::2          382221     12.25%     86.34% # Number of insts commited each cycle (Count)
system.cpu.commit.numCommittedDist::3           41168      1.32%     87.66% # Number of insts commited each cycle (Count)
system.cpu.commit.numCommittedDist::4           29248      0.94%     88.59% # Number of insts commited each cycle (Count)
system.cpu.commit.numCommittedDist::5           24872      0.80%     89.39% # Number of insts commited each cycle (Count)
system.cpu.commit.numCommittedDist::6           23019      0.74%     90.13% # Number of insts commited each cycle (Count)
system.cpu.commit.numCommittedDist::7           58752      1.88%     92.01% # Number of insts commited each cycle (Count)
system.cpu.commit.numCommittedDist::8          249197      7.99%    100.00% # Number of insts commited each cycle (Count)
system.cpu.commit.numCommittedDist::overflows            0      0.00%    100.00% # Number of insts commited each cycle (Count)
system.cpu.commit.numCommittedDist::min_value            0                       # Number of insts commited each cycle (Count)
system.cpu.commit.numCommittedDist::max_value            8                       # Number of insts commited each cycle (Count)
system.cpu.commit.numCommittedDist::total      3119575                       # Number of insts commited each cycle (Count)
system.cpu.commit.instsCommitted              4848388                       # Number of instructions committed (Count)
system.cpu.commit.opsCommitted                4855272                       # Number of ops (including micro ops) committed (Count)
system.cpu.commit.memRefs                     2635301                       # Number of memory references committed (Count)
system.cpu.commit.loads                       1929396                       # Number of loads committed (Count)
system.cpu.commit.amos                             42                       # Number of atomic instructions committed (Count)
system.cpu.commit.membars                          47                       # Number of memory barriers committed (Count)
system.cpu.commit.branches                      88762                       # Number of branches committed (Count)
system.cpu.commit.vectorInstructions            38875                       # Number of committed Vector instructions. (Count)
system.cpu.commit.floating                          0                       # Number of committed floating point instructions. (Count)
system.cpu.commit.integer                     4749883                       # Number of committed integer instructions. (Count)
system.cpu.commit.functionCalls                  1568                       # Number of function calls committed. (Count)
system.cpu.commit.committedInstType_0::No_OpClass      4855272      1.89%      1.89% # Class of committed instruction (Count)
system.cpu.commit.committedInstType_0::IntAlu      4855272      1.89%      3.77% # Class of committed instruction (Count)
system.cpu.commit.committedInstType_0::IntMult      4855272      1.89%      5.66% # Class of committed instruction (Count)
system.cpu.commit.committedInstType_0::IntDiv      4855272      1.89%      7.55% # Class of committed instruction (Count)
system.cpu.commit.committedInstType_0::FloatAdd      4855272      1.89%      9.43% # Class of committed instruction (Count)
system.cpu.commit.committedInstType_0::FloatCmp      4855272      1.89%     11.32% # Class of committed instruction (Count)
system.cpu.commit.committedInstType_0::FloatCvt      4855272      1.89%     13.21% # Class of committed instruction (Count)
system.cpu.commit.committedInstType_0::FloatMult      4855272      1.89%     15.09% # Class of committed instruction (Count)
system.cpu.commit.committedInstType_0::FloatMultAcc      4855272      1.89%     16.98% # Class of committed instruction (Count)
system.cpu.commit.committedInstType_0::FloatDiv      4855272      1.89%     18.87% # Class of committed instruction (Count)
system.cpu.commit.committedInstType_0::FloatMisc      4855272      1.89%     20.75% # Class of committed instruction (Count)
system.cpu.commit.committedInstType_0::FloatSqrt      4855272      1.89%     22.64% # Class of committed instruction (Count)
system.cpu.commit.committedInstType_0::SimdAdd      4855272      1.89%     24.53% # Class of committed instruction (Count)
system.cpu.commit.committedInstType_0::SimdAddAcc      4855272      1.89%     26.42% # Class of committed instruction (Count)
system.cpu.commit.committedInstType_0::SimdAlu      4855272      1.89%     28.30% # Class of committed instruction (Count)
system.cpu.commit.committedInstType_0::SimdCmp      4855272      1.89%     30.19% # Class of committed instruction (Count)
system.cpu.commit.committedInstType_0::SimdCvt      4855272      1.89%     32.08% # Class of committed instruction (Count)
system.cpu.commit.committedInstType_0::SimdMisc      4855272      1.89%     33.96% # Class of committed instruction (Count)
system.cpu.commit.committedInstType_0::SimdMult      4855272      1.89%     35.85% # Class of committed instruction (Count)
system.cpu.commit.committedInstType_0::SimdMultAcc      4855272      1.89%     37.74% # Class of committed instruction (Count)
system.cpu.commit.committedInstType_0::SimdShift      4855272      1.89%     39.62% # Class of committed instruction (Count)
system.cpu.commit.committedInstType_0::SimdShiftAcc      4855272      1.89%     41.51% # Class of committed instruction (Count)
system.cpu.commit.committedInstType_0::SimdDiv      4855272      1.89%     43.40% # Class of committed instruction (Count)
system.cpu.commit.committedInstType_0::SimdSqrt      4855272      1.89%     45.28% # Class of committed instruction (Count)
system.cpu.commit.committedInstType_0::SimdFloatAdd      4855272      1.89%     47.17% # Class of committed instruction (Count)
system.cpu.commit.committedInstType_0::SimdFloatAlu      4855272      1.89%     49.06% # Class of committed instruction (Count)
system.cpu.commit.committedInstType_0::SimdFloatCmp      4855272      1.89%     50.94% # Class of committed instruction (Count)
system.cpu.commit.committedInstType_0::SimdFloatCvt      4855272      1.89%     52.83% # Class of committed instruction (Count)
system.cpu.commit.committedInstType_0::SimdFloatDiv      4855272      1.89%     54.72% # Class of committed instruction (Count)
system.cpu.commit.committedInstType_0::SimdFloatMisc      4855272      1.89%     56.60% # Class of committed instruction (Count)
system.cpu.commit.committedInstType_0::SimdFloatMult      4855272      1.89%     58.49% # Class of committed instruction (Count)
system.cpu.commit.committedInstType_0::SimdFloatMultAcc      4855272      1.89%     60.38% # Class of committed instruction (Count)
system.cpu.commit.committedInstType_0::SimdFloatSqrt      4855272      1.89%     62.26% # Class of committed instruction (Count)
system.cpu.commit.committedInstType_0::SimdReduceAdd      4855272      1.89%     64.15% # Class of committed instruction (Count)
system.cpu.commit.committedInstType_0::SimdReduceAlu      4855272      1.89%     66.04% # Class of committed instruction (Count)
system.cpu.commit.committedInstType_0::SimdReduceCmp      4855272      1.89%     67.92% # Class of committed instruction (Count)
system.cpu.commit.committedInstType_0::SimdFloatReduceAdd      4855272      1.89%     69.81% # Class of committed instruction (Count)
system.cpu.commit.committedInstType_0::SimdFloatReduceCmp      4855272      1.89%     71.70% # Class of committed instruction (Count)
system.cpu.commit.committedInstType_0::SimdAes      4855272      1.89%     73.58% # Class of committed instruction (Count)
system.cpu.commit.committedInstType_0::SimdAesMix      4855272      1.89%     75.47% # Class of committed instruction (Count)
system.cpu.commit.committedInstType_0::SimdSha1Hash      4855272      1.89%     77.36% # Class of committed instruction (Count)
system.cpu.commit.committedInstType_0::SimdSha1Hash2      4855272      1.89%     79.25% # Class of committed instruction (Count)
system.cpu.commit.committedInstType_0::SimdSha256Hash      4855272      1.89%     81.13% # Class of committed instruction (Count)
system.cpu.commit.committedInstType_0::SimdSha256Hash2      4855272      1.89%     83.02% # Class of committed instruction (Count)
system.cpu.commit.committedInstType_0::SimdShaSigma2      4855272      1.89%     84.91% # Class of committed instruction (Count)
system.cpu.commit.committedInstType_0::SimdShaSigma3      4855272      1.89%     86.79% # Class of committed instruction (Count)
system.cpu.commit.committedInstType_0::SimdPredAlu      4855272      1.89%     88.68% # Class of committed instruction (Count)
system.cpu.commit.committedInstType_0::MemRead      4855272      1.89%     90.57% # Class of committed instruction (Count)
system.cpu.commit.committedInstType_0::MemWrite      4855272      1.89%     92.45% # Class of committed instruction (Count)
system.cpu.commit.committedInstType_0::FloatMemRead      4855272      1.89%     94.34% # Class of committed instruction (Count)
system.cpu.commit.committedInstType_0::FloatMemWrite      4855272      1.89%     96.23% # Class of committed instruction (Count)
system.cpu.commit.committedInstType_0::IprAccess      4855272      1.89%     98.11% # Class of committed instruction (Count)
system.cpu.commit.committedInstType_0::InstPrefetch      4855272      1.89%    100.00% # Class of committed instruction (Count)
system.cpu.commit.committedInstType_0::total    257329416                       # Class of committed instruction (Count)
system.cpu.commit.commitEligibleSamples        249197                       # number cycles where commit BW limit reached (Cycle)
system.cpu.dcache.demandHits::writebacks      1859985                       # number of demand (read+write) hits (Count)
system.cpu.dcache.demandHits::functional      1859985                       # number of demand (read+write) hits (Count)
system.cpu.dcache.demandHits::interrupt       1859985                       # number of demand (read+write) hits (Count)
system.cpu.dcache.demandHits::cpu.mmu.dtb_walker      1859985                       # number of demand (read+write) hits (Count)
system.cpu.dcache.demandHits::cpu.mmu.itb_walker      1859985                       # number of demand (read+write) hits (Count)
system.cpu.dcache.demandHits::cpu.mmu.stage2_dtb_walker      1859985                       # number of demand (read+write) hits (Count)
system.cpu.dcache.demandHits::cpu.mmu.stage2_itb_walker      1859985                       # number of demand (read+write) hits (Count)
system.cpu.dcache.demandHits::cpu.inst        1859985                       # number of demand (read+write) hits (Count)
system.cpu.dcache.demandHits::cpu.data        1859985                       # number of demand (read+write) hits (Count)
system.cpu.dcache.demandHits::l2cache.prefetcher      1859985                       # number of demand (read+write) hits (Count)
system.cpu.dcache.demandHits::total          18599850                       # number of demand (read+write) hits (Count)
system.cpu.dcache.overallHits::writebacks      1859985                       # number of overall hits (Count)
system.cpu.dcache.overallHits::functional      1859985                       # number of overall hits (Count)
system.cpu.dcache.overallHits::interrupt      1859985                       # number of overall hits (Count)
system.cpu.dcache.overallHits::cpu.mmu.dtb_walker      1859985                       # number of overall hits (Count)
system.cpu.dcache.overallHits::cpu.mmu.itb_walker      1859985                       # number of overall hits (Count)
system.cpu.dcache.overallHits::cpu.mmu.stage2_dtb_walker      1859985                       # number of overall hits (Count)
system.cpu.dcache.overallHits::cpu.mmu.stage2_itb_walker      1859985                       # number of overall hits (Count)
system.cpu.dcache.overallHits::cpu.inst       1859985                       # number of overall hits (Count)
system.cpu.dcache.overallHits::cpu.data       1859985                       # number of overall hits (Count)
system.cpu.dcache.overallHits::l2cache.prefetcher      1859985                       # number of overall hits (Count)
system.cpu.dcache.overallHits::total         18599850                       # number of overall hits (Count)
system.cpu.dcache.demandMisses::writebacks         4438                       # number of demand (read+write) misses (Count)
system.cpu.dcache.demandMisses::functional         4438                       # number of demand (read+write) misses (Count)
system.cpu.dcache.demandMisses::interrupt         4438                       # number of demand (read+write) misses (Count)
system.cpu.dcache.demandMisses::cpu.mmu.dtb_walker         4438                       # number of demand (read+write) misses (Count)
system.cpu.dcache.demandMisses::cpu.mmu.itb_walker         4438                       # number of demand (read+write) misses (Count)
system.cpu.dcache.demandMisses::cpu.mmu.stage2_dtb_walker         4438                       # number of demand (read+write) misses (Count)
system.cpu.dcache.demandMisses::cpu.mmu.stage2_itb_walker         4438                       # number of demand (read+write) misses (Count)
system.cpu.dcache.demandMisses::cpu.inst         4438                       # number of demand (read+write) misses (Count)
system.cpu.dcache.demandMisses::cpu.data         4438                       # number of demand (read+write) misses (Count)
system.cpu.dcache.demandMisses::l2cache.prefetcher         4438                       # number of demand (read+write) misses (Count)
system.cpu.dcache.demandMisses::total           44380                       # number of demand (read+write) misses (Count)
system.cpu.dcache.overallMisses::writebacks         4438                       # number of overall misses (Count)
system.cpu.dcache.overallMisses::functional         4438                       # number of overall misses (Count)
system.cpu.dcache.overallMisses::interrupt         4438                       # number of overall misses (Count)
system.cpu.dcache.overallMisses::cpu.mmu.dtb_walker         4438                       # number of overall misses (Count)
system.cpu.dcache.overallMisses::cpu.mmu.itb_walker         4438                       # number of overall misses (Count)
system.cpu.dcache.overallMisses::cpu.mmu.stage2_dtb_walker         4438                       # number of overall misses (Count)
system.cpu.dcache.overallMisses::cpu.mmu.stage2_itb_walker         4438                       # number of overall misses (Count)
system.cpu.dcache.overallMisses::cpu.inst         4438                       # number of overall misses (Count)
system.cpu.dcache.overallMisses::cpu.data         4438                       # number of overall misses (Count)
system.cpu.dcache.overallMisses::l2cache.prefetcher         4438                       # number of overall misses (Count)
system.cpu.dcache.overallMisses::total          44380                       # number of overall misses (Count)
system.cpu.dcache.demandMissLatency::writebacks    101630016                       # number of demand (read+write) miss ticks (Tick)
system.cpu.dcache.demandMissLatency::functional    101630016                       # number of demand (read+write) miss ticks (Tick)
system.cpu.dcache.demandMissLatency::interrupt    101630016                       # number of demand (read+write) miss ticks (Tick)
system.cpu.dcache.demandMissLatency::cpu.mmu.dtb_walker    101630016                       # number of demand (read+write) miss ticks (Tick)
system.cpu.dcache.demandMissLatency::cpu.mmu.itb_walker    101630016                       # number of demand (read+write) miss ticks (Tick)
system.cpu.dcache.demandMissLatency::cpu.mmu.stage2_dtb_walker    101630016                       # number of demand (read+write) miss ticks (Tick)
system.cpu.dcache.demandMissLatency::cpu.mmu.stage2_itb_walker    101630016                       # number of demand (read+write) miss ticks (Tick)
system.cpu.dcache.demandMissLatency::cpu.inst    101630016                       # number of demand (read+write) miss ticks (Tick)
system.cpu.dcache.demandMissLatency::cpu.data    101630016                       # number of demand (read+write) miss ticks (Tick)
system.cpu.dcache.demandMissLatency::l2cache.prefetcher    101630016                       # number of demand (read+write) miss ticks (Tick)
system.cpu.dcache.demandMissLatency::total   1016300160                       # number of demand (read+write) miss ticks (Tick)
system.cpu.dcache.overallMissLatency::writebacks    101630016                       # number of overall miss ticks (Tick)
system.cpu.dcache.overallMissLatency::functional    101630016                       # number of overall miss ticks (Tick)
system.cpu.dcache.overallMissLatency::interrupt    101630016                       # number of overall miss ticks (Tick)
system.cpu.dcache.overallMissLatency::cpu.mmu.dtb_walker    101630016                       # number of overall miss ticks (Tick)
system.cpu.dcache.overallMissLatency::cpu.mmu.itb_walker    101630016                       # number of overall miss ticks (Tick)
system.cpu.dcache.overallMissLatency::cpu.mmu.stage2_dtb_walker    101630016                       # number of overall miss ticks (Tick)
system.cpu.dcache.overallMissLatency::cpu.mmu.stage2_itb_walker    101630016                       # number of overall miss ticks (Tick)
system.cpu.dcache.overallMissLatency::cpu.inst    101630016                       # number of overall miss ticks (Tick)
system.cpu.dcache.overallMissLatency::cpu.data    101630016                       # number of overall miss ticks (Tick)
system.cpu.dcache.overallMissLatency::l2cache.prefetcher    101630016                       # number of overall miss ticks (Tick)
system.cpu.dcache.overallMissLatency::total   1016300160                       # number of overall miss ticks (Tick)
system.cpu.dcache.demandAccesses::writebacks      1864423                       # number of demand (read+write) accesses (Count)
system.cpu.dcache.demandAccesses::functional      1864423                       # number of demand (read+write) accesses (Count)
system.cpu.dcache.demandAccesses::interrupt      1864423                       # number of demand (read+write) accesses (Count)
system.cpu.dcache.demandAccesses::cpu.mmu.dtb_walker      1864423                       # number of demand (read+write) accesses (Count)
system.cpu.dcache.demandAccesses::cpu.mmu.itb_walker      1864423                       # number of demand (read+write) accesses (Count)
system.cpu.dcache.demandAccesses::cpu.mmu.stage2_dtb_walker      1864423                       # number of demand (read+write) accesses (Count)
system.cpu.dcache.demandAccesses::cpu.mmu.stage2_itb_walker      1864423                       # number of demand (read+write) accesses (Count)
system.cpu.dcache.demandAccesses::cpu.inst      1864423                       # number of demand (read+write) accesses (Count)
system.cpu.dcache.demandAccesses::cpu.data      1864423                       # number of demand (read+write) accesses (Count)
system.cpu.dcache.demandAccesses::l2cache.prefetcher      1864423                       # number of demand (read+write) accesses (Count)
system.cpu.dcache.demandAccesses::total      18644230                       # number of demand (read+write) accesses (Count)
system.cpu.dcache.overallAccesses::writebacks      1864423                       # number of overall (read+write) accesses (Count)
system.cpu.dcache.overallAccesses::functional      1864423                       # number of overall (read+write) accesses (Count)
system.cpu.dcache.overallAccesses::interrupt      1864423                       # number of overall (read+write) accesses (Count)
system.cpu.dcache.overallAccesses::cpu.mmu.dtb_walker      1864423                       # number of overall (read+write) accesses (Count)
system.cpu.dcache.overallAccesses::cpu.mmu.itb_walker      1864423                       # number of overall (read+write) accesses (Count)
system.cpu.dcache.overallAccesses::cpu.mmu.stage2_dtb_walker      1864423                       # number of overall (read+write) accesses (Count)
system.cpu.dcache.overallAccesses::cpu.mmu.stage2_itb_walker      1864423                       # number of overall (read+write) accesses (Count)
system.cpu.dcache.overallAccesses::cpu.inst      1864423                       # number of overall (read+write) accesses (Count)
system.cpu.dcache.overallAccesses::cpu.data      1864423                       # number of overall (read+write) accesses (Count)
system.cpu.dcache.overallAccesses::l2cache.prefetcher      1864423                       # number of overall (read+write) accesses (Count)
system.cpu.dcache.overallAccesses::total     18644230                       # number of overall (read+write) accesses (Count)
system.cpu.dcache.demandMissRate::writebacks     0.002380                       # miss rate for demand accesses (Ratio)
system.cpu.dcache.demandMissRate::functional     0.002380                       # miss rate for demand accesses (Ratio)
system.cpu.dcache.demandMissRate::interrupt     0.002380                       # miss rate for demand accesses (Ratio)
system.cpu.dcache.demandMissRate::cpu.mmu.dtb_walker     0.002380                       # miss rate for demand accesses (Ratio)
system.cpu.dcache.demandMissRate::cpu.mmu.itb_walker     0.002380                       # miss rate for demand accesses (Ratio)
system.cpu.dcache.demandMissRate::cpu.mmu.stage2_dtb_walker     0.002380                       # miss rate for demand accesses (Ratio)
system.cpu.dcache.demandMissRate::cpu.mmu.stage2_itb_walker     0.002380                       # miss rate for demand accesses (Ratio)
system.cpu.dcache.demandMissRate::cpu.inst     0.002380                       # miss rate for demand accesses (Ratio)
system.cpu.dcache.demandMissRate::cpu.data     0.002380                       # miss rate for demand accesses (Ratio)
system.cpu.dcache.demandMissRate::l2cache.prefetcher     0.002380                       # miss rate for demand accesses (Ratio)
system.cpu.dcache.demandMissRate::total      0.002380                       # miss rate for demand accesses (Ratio)
system.cpu.dcache.overallMissRate::writebacks     0.002380                       # miss rate for overall accesses (Ratio)
system.cpu.dcache.overallMissRate::functional     0.002380                       # miss rate for overall accesses (Ratio)
system.cpu.dcache.overallMissRate::interrupt     0.002380                       # miss rate for overall accesses (Ratio)
system.cpu.dcache.overallMissRate::cpu.mmu.dtb_walker     0.002380                       # miss rate for overall accesses (Ratio)
system.cpu.dcache.overallMissRate::cpu.mmu.itb_walker     0.002380                       # miss rate for overall accesses (Ratio)
system.cpu.dcache.overallMissRate::cpu.mmu.stage2_dtb_walker     0.002380                       # miss rate for overall accesses (Ratio)
system.cpu.dcache.overallMissRate::cpu.mmu.stage2_itb_walker     0.002380                       # miss rate for overall accesses (Ratio)
system.cpu.dcache.overallMissRate::cpu.inst     0.002380                       # miss rate for overall accesses (Ratio)
system.cpu.dcache.overallMissRate::cpu.data     0.002380                       # miss rate for overall accesses (Ratio)
system.cpu.dcache.overallMissRate::l2cache.prefetcher     0.002380                       # miss rate for overall accesses (Ratio)
system.cpu.dcache.overallMissRate::total     0.002380                       # miss rate for overall accesses (Ratio)
system.cpu.dcache.demandAvgMissLatency::writebacks 22899.958540                       # average overall miss latency ((Cycle/Count))
system.cpu.dcache.demandAvgMissLatency::functional 22899.958540                       # average overall miss latency ((Cycle/Count))
system.cpu.dcache.demandAvgMissLatency::interrupt 22899.958540                       # average overall miss latency ((Cycle/Count))
system.cpu.dcache.demandAvgMissLatency::cpu.mmu.dtb_walker 22899.958540                       # average overall miss latency ((Cycle/Count))
system.cpu.dcache.demandAvgMissLatency::cpu.mmu.itb_walker 22899.958540                       # average overall miss latency ((Cycle/Count))
system.cpu.dcache.demandAvgMissLatency::cpu.mmu.stage2_dtb_walker 22899.958540                       # average overall miss latency ((Cycle/Count))
system.cpu.dcache.demandAvgMissLatency::cpu.mmu.stage2_itb_walker 22899.958540                       # average overall miss latency ((Cycle/Count))
system.cpu.dcache.demandAvgMissLatency::cpu.inst 22899.958540                       # average overall miss latency ((Cycle/Count))
system.cpu.dcache.demandAvgMissLatency::cpu.data 22899.958540                       # average overall miss latency ((Cycle/Count))
system.cpu.dcache.demandAvgMissLatency::l2cache.prefetcher 22899.958540                       # average overall miss latency ((Cycle/Count))
system.cpu.dcache.demandAvgMissLatency::total 22899.958540                       # average overall miss latency ((Cycle/Count))
system.cpu.dcache.overallAvgMissLatency::writebacks 22899.958540                       # average overall miss latency ((Cycle/Count))
system.cpu.dcache.overallAvgMissLatency::functional 22899.958540                       # average overall miss latency ((Cycle/Count))
system.cpu.dcache.overallAvgMissLatency::interrupt 22899.958540                       # average overall miss latency ((Cycle/Count))
system.cpu.dcache.overallAvgMissLatency::cpu.mmu.dtb_walker 22899.958540                       # average overall miss latency ((Cycle/Count))
system.cpu.dcache.overallAvgMissLatency::cpu.mmu.itb_walker 22899.958540                       # average overall miss latency ((Cycle/Count))
system.cpu.dcache.overallAvgMissLatency::cpu.mmu.stage2_dtb_walker 22899.958540                       # average overall miss latency ((Cycle/Count))
system.cpu.dcache.overallAvgMissLatency::cpu.mmu.stage2_itb_walker 22899.958540                       # average overall miss latency ((Cycle/Count))
system.cpu.dcache.overallAvgMissLatency::cpu.inst 22899.958540                       # average overall miss latency ((Cycle/Count))
system.cpu.dcache.overallAvgMissLatency::cpu.data 22899.958540                       # average overall miss latency ((Cycle/Count))
system.cpu.dcache.overallAvgMissLatency::l2cache.prefetcher 22899.958540                       # average overall miss latency ((Cycle/Count))
system.cpu.dcache.overallAvgMissLatency::total 22899.958540                       # average overall miss latency ((Cycle/Count))
system.cpu.dcache.blockedCycles::no_mshrs         8923                       # number of cycles access was blocked (Cycle)
system.cpu.dcache.blockedCycles::no_targets         8923                       # number of cycles access was blocked (Cycle)
system.cpu.dcache.blockedCauses::no_mshrs          648                       # number of times access was blocked (Count)
system.cpu.dcache.blockedCauses::no_targets          648                       # number of times access was blocked (Count)
system.cpu.dcache.avgBlocked::no_mshrs      13.770062                       # average number of cycles each access was blocked ((Cycle/Count))
system.cpu.dcache.avgBlocked::no_targets    13.770062                       # average number of cycles each access was blocked ((Cycle/Count))
system.cpu.dcache.writebacks::writebacks         1165                       # number of writebacks (Count)
system.cpu.dcache.writebacks::functional         1165                       # number of writebacks (Count)
system.cpu.dcache.writebacks::interrupt          1165                       # number of writebacks (Count)
system.cpu.dcache.writebacks::cpu.mmu.dtb_walker         1165                       # number of writebacks (Count)
system.cpu.dcache.writebacks::cpu.mmu.itb_walker         1165                       # number of writebacks (Count)
system.cpu.dcache.writebacks::cpu.mmu.stage2_dtb_walker         1165                       # number of writebacks (Count)
system.cpu.dcache.writebacks::cpu.mmu.stage2_itb_walker         1165                       # number of writebacks (Count)
system.cpu.dcache.writebacks::cpu.inst           1165                       # number of writebacks (Count)
system.cpu.dcache.writebacks::cpu.data           1165                       # number of writebacks (Count)
system.cpu.dcache.writebacks::l2cache.prefetcher         1165                       # number of writebacks (Count)
system.cpu.dcache.writebacks::total             11650                       # number of writebacks (Count)
system.cpu.dcache.demandMshrHits::writebacks         2767                       # number of demand (read+write) MSHR hits (Count)
system.cpu.dcache.demandMshrHits::functional         2767                       # number of demand (read+write) MSHR hits (Count)
system.cpu.dcache.demandMshrHits::interrupt         2767                       # number of demand (read+write) MSHR hits (Count)
system.cpu.dcache.demandMshrHits::cpu.mmu.dtb_walker         2767                       # number of demand (read+write) MSHR hits (Count)
system.cpu.dcache.demandMshrHits::cpu.mmu.itb_walker         2767                       # number of demand (read+write) MSHR hits (Count)
system.cpu.dcache.demandMshrHits::cpu.mmu.stage2_dtb_walker         2767                       # number of demand (read+write) MSHR hits (Count)
system.cpu.dcache.demandMshrHits::cpu.mmu.stage2_itb_walker         2767                       # number of demand (read+write) MSHR hits (Count)
system.cpu.dcache.demandMshrHits::cpu.inst         2767                       # number of demand (read+write) MSHR hits (Count)
system.cpu.dcache.demandMshrHits::cpu.data         2767                       # number of demand (read+write) MSHR hits (Count)
system.cpu.dcache.demandMshrHits::l2cache.prefetcher         2767                       # number of demand (read+write) MSHR hits (Count)
system.cpu.dcache.demandMshrHits::total         27670                       # number of demand (read+write) MSHR hits (Count)
system.cpu.dcache.overallMshrHits::writebacks         2767                       # number of overall MSHR hits (Count)
system.cpu.dcache.overallMshrHits::functional         2767                       # number of overall MSHR hits (Count)
system.cpu.dcache.overallMshrHits::interrupt         2767                       # number of overall MSHR hits (Count)
system.cpu.dcache.overallMshrHits::cpu.mmu.dtb_walker         2767                       # number of overall MSHR hits (Count)
system.cpu.dcache.overallMshrHits::cpu.mmu.itb_walker         2767                       # number of overall MSHR hits (Count)
system.cpu.dcache.overallMshrHits::cpu.mmu.stage2_dtb_walker         2767                       # number of overall MSHR hits (Count)
system.cpu.dcache.overallMshrHits::cpu.mmu.stage2_itb_walker         2767                       # number of overall MSHR hits (Count)
system.cpu.dcache.overallMshrHits::cpu.inst         2767                       # number of overall MSHR hits (Count)
system.cpu.dcache.overallMshrHits::cpu.data         2767                       # number of overall MSHR hits (Count)
system.cpu.dcache.overallMshrHits::l2cache.prefetcher         2767                       # number of overall MSHR hits (Count)
system.cpu.dcache.overallMshrHits::total        27670                       # number of overall MSHR hits (Count)
system.cpu.dcache.demandMshrMisses::writebacks         1671                       # number of demand (read+write) MSHR misses (Count)
system.cpu.dcache.demandMshrMisses::functional         1671                       # number of demand (read+write) MSHR misses (Count)
system.cpu.dcache.demandMshrMisses::interrupt         1671                       # number of demand (read+write) MSHR misses (Count)
system.cpu.dcache.demandMshrMisses::cpu.mmu.dtb_walker         1671                       # number of demand (read+write) MSHR misses (Count)
system.cpu.dcache.demandMshrMisses::cpu.mmu.itb_walker         1671                       # number of demand (read+write) MSHR misses (Count)
system.cpu.dcache.demandMshrMisses::cpu.mmu.stage2_dtb_walker         1671                       # number of demand (read+write) MSHR misses (Count)
system.cpu.dcache.demandMshrMisses::cpu.mmu.stage2_itb_walker         1671                       # number of demand (read+write) MSHR misses (Count)
system.cpu.dcache.demandMshrMisses::cpu.inst         1671                       # number of demand (read+write) MSHR misses (Count)
system.cpu.dcache.demandMshrMisses::cpu.data         1671                       # number of demand (read+write) MSHR misses (Count)
system.cpu.dcache.demandMshrMisses::l2cache.prefetcher         1671                       # number of demand (read+write) MSHR misses (Count)
system.cpu.dcache.demandMshrMisses::total        16710                       # number of demand (read+write) MSHR misses (Count)
system.cpu.dcache.overallMshrMisses::writebacks         1671                       # number of overall MSHR misses (Count)
system.cpu.dcache.overallMshrMisses::functional         1671                       # number of overall MSHR misses (Count)
system.cpu.dcache.overallMshrMisses::interrupt         1671                       # number of overall MSHR misses (Count)
system.cpu.dcache.overallMshrMisses::cpu.mmu.dtb_walker         1671                       # number of overall MSHR misses (Count)
system.cpu.dcache.overallMshrMisses::cpu.mmu.itb_walker         1671                       # number of overall MSHR misses (Count)
system.cpu.dcache.overallMshrMisses::cpu.mmu.stage2_dtb_walker         1671                       # number of overall MSHR misses (Count)
system.cpu.dcache.overallMshrMisses::cpu.mmu.stage2_itb_walker         1671                       # number of overall MSHR misses (Count)
system.cpu.dcache.overallMshrMisses::cpu.inst         1671                       # number of overall MSHR misses (Count)
system.cpu.dcache.overallMshrMisses::cpu.data         1671                       # number of overall MSHR misses (Count)
system.cpu.dcache.overallMshrMisses::l2cache.prefetcher         1671                       # number of overall MSHR misses (Count)
system.cpu.dcache.overallMshrMisses::total        16710                       # number of overall MSHR misses (Count)
system.cpu.dcache.demandMshrMissLatency::writebacks     41668718                       # number of demand (read+write) MSHR miss ticks (Tick)
system.cpu.dcache.demandMshrMissLatency::functional     41668718                       # number of demand (read+write) MSHR miss ticks (Tick)
system.cpu.dcache.demandMshrMissLatency::interrupt     41668718                       # number of demand (read+write) MSHR miss ticks (Tick)
system.cpu.dcache.demandMshrMissLatency::cpu.mmu.dtb_walker     41668718                       # number of demand (read+write) MSHR miss ticks (Tick)
system.cpu.dcache.demandMshrMissLatency::cpu.mmu.itb_walker     41668718                       # number of demand (read+write) MSHR miss ticks (Tick)
system.cpu.dcache.demandMshrMissLatency::cpu.mmu.stage2_dtb_walker     41668718                       # number of demand (read+write) MSHR miss ticks (Tick)
system.cpu.dcache.demandMshrMissLatency::cpu.mmu.stage2_itb_walker     41668718                       # number of demand (read+write) MSHR miss ticks (Tick)
system.cpu.dcache.demandMshrMissLatency::cpu.inst     41668718                       # number of demand (read+write) MSHR miss ticks (Tick)
system.cpu.dcache.demandMshrMissLatency::cpu.data     41668718                       # number of demand (read+write) MSHR miss ticks (Tick)
system.cpu.dcache.demandMshrMissLatency::l2cache.prefetcher     41668718                       # number of demand (read+write) MSHR miss ticks (Tick)
system.cpu.dcache.demandMshrMissLatency::total    416687180                       # number of demand (read+write) MSHR miss ticks (Tick)
system.cpu.dcache.overallMshrMissLatency::writebacks     41668718                       # number of overall MSHR miss ticks (Tick)
system.cpu.dcache.overallMshrMissLatency::functional     41668718                       # number of overall MSHR miss ticks (Tick)
system.cpu.dcache.overallMshrMissLatency::interrupt     41668718                       # number of overall MSHR miss ticks (Tick)
system.cpu.dcache.overallMshrMissLatency::cpu.mmu.dtb_walker     41668718                       # number of overall MSHR miss ticks (Tick)
system.cpu.dcache.overallMshrMissLatency::cpu.mmu.itb_walker     41668718                       # number of overall MSHR miss ticks (Tick)
system.cpu.dcache.overallMshrMissLatency::cpu.mmu.stage2_dtb_walker     41668718                       # number of overall MSHR miss ticks (Tick)
system.cpu.dcache.overallMshrMissLatency::cpu.mmu.stage2_itb_walker     41668718                       # number of overall MSHR miss ticks (Tick)
system.cpu.dcache.overallMshrMissLatency::cpu.inst     41668718                       # number of overall MSHR miss ticks (Tick)
system.cpu.dcache.overallMshrMissLatency::cpu.data     41668718                       # number of overall MSHR miss ticks (Tick)
system.cpu.dcache.overallMshrMissLatency::l2cache.prefetcher     41668718                       # number of overall MSHR miss ticks (Tick)
system.cpu.dcache.overallMshrMissLatency::total    416687180                       # number of overall MSHR miss ticks (Tick)
system.cpu.dcache.demandMshrMissRate::writebacks     0.000896                       # mshr miss ratio for demand accesses (Ratio)
system.cpu.dcache.demandMshrMissRate::functional     0.000896                       # mshr miss ratio for demand accesses (Ratio)
system.cpu.dcache.demandMshrMissRate::interrupt     0.000896                       # mshr miss ratio for demand accesses (Ratio)
system.cpu.dcache.demandMshrMissRate::cpu.mmu.dtb_walker     0.000896                       # mshr miss ratio for demand accesses (Ratio)
system.cpu.dcache.demandMshrMissRate::cpu.mmu.itb_walker     0.000896                       # mshr miss ratio for demand accesses (Ratio)
system.cpu.dcache.demandMshrMissRate::cpu.mmu.stage2_dtb_walker     0.000896                       # mshr miss ratio for demand accesses (Ratio)
system.cpu.dcache.demandMshrMissRate::cpu.mmu.stage2_itb_walker     0.000896                       # mshr miss ratio for demand accesses (Ratio)
system.cpu.dcache.demandMshrMissRate::cpu.inst     0.000896                       # mshr miss ratio for demand accesses (Ratio)
system.cpu.dcache.demandMshrMissRate::cpu.data     0.000896                       # mshr miss ratio for demand accesses (Ratio)
system.cpu.dcache.demandMshrMissRate::l2cache.prefetcher     0.000896                       # mshr miss ratio for demand accesses (Ratio)
system.cpu.dcache.demandMshrMissRate::total     0.000896                       # mshr miss ratio for demand accesses (Ratio)
system.cpu.dcache.overallMshrMissRate::writebacks     0.000896                       # mshr miss ratio for overall accesses (Ratio)
system.cpu.dcache.overallMshrMissRate::functional     0.000896                       # mshr miss ratio for overall accesses (Ratio)
system.cpu.dcache.overallMshrMissRate::interrupt     0.000896                       # mshr miss ratio for overall accesses (Ratio)
system.cpu.dcache.overallMshrMissRate::cpu.mmu.dtb_walker     0.000896                       # mshr miss ratio for overall accesses (Ratio)
system.cpu.dcache.overallMshrMissRate::cpu.mmu.itb_walker     0.000896                       # mshr miss ratio for overall accesses (Ratio)
system.cpu.dcache.overallMshrMissRate::cpu.mmu.stage2_dtb_walker     0.000896                       # mshr miss ratio for overall accesses (Ratio)
system.cpu.dcache.overallMshrMissRate::cpu.mmu.stage2_itb_walker     0.000896                       # mshr miss ratio for overall accesses (Ratio)
system.cpu.dcache.overallMshrMissRate::cpu.inst     0.000896                       # mshr miss ratio for overall accesses (Ratio)
system.cpu.dcache.overallMshrMissRate::cpu.data     0.000896                       # mshr miss ratio for overall accesses (Ratio)
system.cpu.dcache.overallMshrMissRate::l2cache.prefetcher     0.000896                       # mshr miss ratio for overall accesses (Ratio)
system.cpu.dcache.overallMshrMissRate::total     0.000896                       # mshr miss ratio for overall accesses (Ratio)
system.cpu.dcache.demandAvgMshrMissLatency::writebacks 24936.396170                       # average overall mshr miss latency ((Cycle/Count))
system.cpu.dcache.demandAvgMshrMissLatency::functional 24936.396170                       # average overall mshr miss latency ((Cycle/Count))
system.cpu.dcache.demandAvgMshrMissLatency::interrupt 24936.396170                       # average overall mshr miss latency ((Cycle/Count))
system.cpu.dcache.demandAvgMshrMissLatency::cpu.mmu.dtb_walker 24936.396170                       # average overall mshr miss latency ((Cycle/Count))
system.cpu.dcache.demandAvgMshrMissLatency::cpu.mmu.itb_walker 24936.396170                       # average overall mshr miss latency ((Cycle/Count))
system.cpu.dcache.demandAvgMshrMissLatency::cpu.mmu.stage2_dtb_walker 24936.396170                       # average overall mshr miss latency ((Cycle/Count))
system.cpu.dcache.demandAvgMshrMissLatency::cpu.mmu.stage2_itb_walker 24936.396170                       # average overall mshr miss latency ((Cycle/Count))
system.cpu.dcache.demandAvgMshrMissLatency::cpu.inst 24936.396170                       # average overall mshr miss latency ((Cycle/Count))
system.cpu.dcache.demandAvgMshrMissLatency::cpu.data 24936.396170                       # average overall mshr miss latency ((Cycle/Count))
system.cpu.dcache.demandAvgMshrMissLatency::l2cache.prefetcher 24936.396170                       # average overall mshr miss latency ((Cycle/Count))
system.cpu.dcache.demandAvgMshrMissLatency::total 24936.396170                       # average overall mshr miss latency ((Cycle/Count))
system.cpu.dcache.overallAvgMshrMissLatency::writebacks 24936.396170                       # average overall mshr miss latency ((Cycle/Count))
system.cpu.dcache.overallAvgMshrMissLatency::functional 24936.396170                       # average overall mshr miss latency ((Cycle/Count))
system.cpu.dcache.overallAvgMshrMissLatency::interrupt 24936.396170                       # average overall mshr miss latency ((Cycle/Count))
system.cpu.dcache.overallAvgMshrMissLatency::cpu.mmu.dtb_walker 24936.396170                       # average overall mshr miss latency ((Cycle/Count))
system.cpu.dcache.overallAvgMshrMissLatency::cpu.mmu.itb_walker 24936.396170                       # average overall mshr miss latency ((Cycle/Count))
system.cpu.dcache.overallAvgMshrMissLatency::cpu.mmu.stage2_dtb_walker 24936.396170                       # average overall mshr miss latency ((Cycle/Count))
system.cpu.dcache.overallAvgMshrMissLatency::cpu.mmu.stage2_itb_walker 24936.396170                       # average overall mshr miss latency ((Cycle/Count))
system.cpu.dcache.overallAvgMshrMissLatency::cpu.inst 24936.396170                       # average overall mshr miss latency ((Cycle/Count))
system.cpu.dcache.overallAvgMshrMissLatency::cpu.data 24936.396170                       # average overall mshr miss latency ((Cycle/Count))
system.cpu.dcache.overallAvgMshrMissLatency::l2cache.prefetcher 24936.396170                       # average overall mshr miss latency ((Cycle/Count))
system.cpu.dcache.overallAvgMshrMissLatency::total 24936.396170                       # average overall mshr miss latency ((Cycle/Count))
system.cpu.dcache.replacements                   1165                       # number of replacements (Count)
system.cpu.dcache.LoadLockedReq.hits::writebacks            4                       # number of LoadLockedReq hits (Count)
system.cpu.dcache.LoadLockedReq.hits::functional            4                       # number of LoadLockedReq hits (Count)
system.cpu.dcache.LoadLockedReq.hits::interrupt            4                       # number of LoadLockedReq hits (Count)
system.cpu.dcache.LoadLockedReq.hits::cpu.mmu.dtb_walker            4                       # number of LoadLockedReq hits (Count)
system.cpu.dcache.LoadLockedReq.hits::cpu.mmu.itb_walker            4                       # number of LoadLockedReq hits (Count)
system.cpu.dcache.LoadLockedReq.hits::cpu.mmu.stage2_dtb_walker            4                       # number of LoadLockedReq hits (Count)
system.cpu.dcache.LoadLockedReq.hits::cpu.mmu.stage2_itb_walker            4                       # number of LoadLockedReq hits (Count)
system.cpu.dcache.LoadLockedReq.hits::cpu.inst            4                       # number of LoadLockedReq hits (Count)
system.cpu.dcache.LoadLockedReq.hits::cpu.data            4                       # number of LoadLockedReq hits (Count)
system.cpu.dcache.LoadLockedReq.hits::l2cache.prefetcher            4                       # number of LoadLockedReq hits (Count)
system.cpu.dcache.LoadLockedReq.hits::total           40                       # number of LoadLockedReq hits (Count)
system.cpu.dcache.LoadLockedReq.misses::writebacks            1                       # number of LoadLockedReq misses (Count)
system.cpu.dcache.LoadLockedReq.misses::functional            1                       # number of LoadLockedReq misses (Count)
system.cpu.dcache.LoadLockedReq.misses::interrupt            1                       # number of LoadLockedReq misses (Count)
system.cpu.dcache.LoadLockedReq.misses::cpu.mmu.dtb_walker            1                       # number of LoadLockedReq misses (Count)
system.cpu.dcache.LoadLockedReq.misses::cpu.mmu.itb_walker            1                       # number of LoadLockedReq misses (Count)
system.cpu.dcache.LoadLockedReq.misses::cpu.mmu.stage2_dtb_walker            1                       # number of LoadLockedReq misses (Count)
system.cpu.dcache.LoadLockedReq.misses::cpu.mmu.stage2_itb_walker            1                       # number of LoadLockedReq misses (Count)
system.cpu.dcache.LoadLockedReq.misses::cpu.inst            1                       # number of LoadLockedReq misses (Count)
system.cpu.dcache.LoadLockedReq.misses::cpu.data            1                       # number of LoadLockedReq misses (Count)
system.cpu.dcache.LoadLockedReq.misses::l2cache.prefetcher            1                       # number of LoadLockedReq misses (Count)
system.cpu.dcache.LoadLockedReq.misses::total           10                       # number of LoadLockedReq misses (Count)
system.cpu.dcache.LoadLockedReq.missLatency::writebacks        89964                       # number of LoadLockedReq miss ticks (Tick)
system.cpu.dcache.LoadLockedReq.missLatency::functional        89964                       # number of LoadLockedReq miss ticks (Tick)
system.cpu.dcache.LoadLockedReq.missLatency::interrupt        89964                       # number of LoadLockedReq miss ticks (Tick)
system.cpu.dcache.LoadLockedReq.missLatency::cpu.mmu.dtb_walker        89964                       # number of LoadLockedReq miss ticks (Tick)
system.cpu.dcache.LoadLockedReq.missLatency::cpu.mmu.itb_walker        89964                       # number of LoadLockedReq miss ticks (Tick)
system.cpu.dcache.LoadLockedReq.missLatency::cpu.mmu.stage2_dtb_walker        89964                       # number of LoadLockedReq miss ticks (Tick)
system.cpu.dcache.LoadLockedReq.missLatency::cpu.mmu.stage2_itb_walker        89964                       # number of LoadLockedReq miss ticks (Tick)
system.cpu.dcache.LoadLockedReq.missLatency::cpu.inst        89964                       # number of LoadLockedReq miss ticks (Tick)
system.cpu.dcache.LoadLockedReq.missLatency::cpu.data        89964                       # number of LoadLockedReq miss ticks (Tick)
system.cpu.dcache.LoadLockedReq.missLatency::l2cache.prefetcher        89964                       # number of LoadLockedReq miss ticks (Tick)
[...]
system.mem_ctrl.dram.bytesPerActivate::samples          248                       # Bytes accessed per row activation (Byte)
system.mem_ctrl.dram.bytesPerActivate::mean   365.935484                       # Bytes accessed per row activation (Byte)
system.mem_ctrl.dram.bytesPerActivate::gmean   222.103625                       # Bytes accessed per row activation (Byte)
system.mem_ctrl.dram.bytesPerActivate::stdev   351.304238                       # Bytes accessed per row activation (Byte)
system.mem_ctrl.dram.bytesPerActivate::0-127           70     28.23%     28.23% # Bytes accessed per row activation (Byte)
system.mem_ctrl.dram.bytesPerActivate::128-255           62     25.00%     53.23% # Bytes accessed per row activation (Byte)
system.mem_ctrl.dram.bytesPerActivate::256-383           28     11.29%     64.52% # Bytes accessed per row activation (Byte)
system.mem_ctrl.dram.bytesPerActivate::384-511           20      8.06%     72.58% # Bytes accessed per row activation (Byte)
system.mem_ctrl.dram.bytesPerActivate::512-639           10      4.03%     76.61% # Bytes accessed per row activation (Byte)
system.mem_ctrl.dram.bytesPerActivate::640-767            8      3.23%     79.84% # Bytes accessed per row activation (Byte)
system.mem_ctrl.dram.bytesPerActivate::768-895            7      2.82%     82.66% # Bytes accessed per row activation (Byte)
system.mem_ctrl.dram.bytesPerActivate::896-1023            2      0.81%     83.47% # Bytes accessed per row activation (Byte)
system.mem_ctrl.dram.bytesPerActivate::1024-1151           41     16.53%    100.00% # Bytes accessed per row activation (Byte)
system.mem_ctrl.dram.bytesPerActivate::total          248                       # Bytes accessed per row activation (Byte)
system.mem_ctrl.dram.bytesRead                  94272                       # Total number of bytes read from DRAM (Byte)
system.mem_ctrl.dram.bytesWritten                   0                       # Total number of bytes written to DRAM (Byte)
system.mem_ctrl.dram.avgRdBW                50.300192                       # Average DRAM read bandwidth in MiBytes/s ((Byte/Second))
system.mem_ctrl.dram.avgWrBW                        0                       # Average DRAM write bandwidth in MiBytes/s ((Byte/Second))
system.mem_ctrl.dram.peakBW                  12800.00                       # Theoretical peak bandwidth in MiByte/s ((Byte/Second))
system.mem_ctrl.dram.busUtil                     0.39                       # Data bus utilization in percentage (Ratio)
system.mem_ctrl.dram.busUtilRead                 0.39                       # Data bus utilization in percentage for reads (Ratio)
system.mem_ctrl.dram.busUtilWrite                0.00                       # Data bus utilization in percentage for writes (Ratio)
system.mem_ctrl.dram.pageHitRate                82.42                       # Row buffer hit rate, read and write combined (Ratio)
system.mem_ctrl.dram.power_state.pwrStateResidencyTicks::UNDEFINED   1874187672                       # Cumulative time (in ticks) in various power states (Tick)
system.mem_ctrl.dram.power_state.pwrStateResidencyTicks::ON   1874187672                       # Cumulative time (in ticks) in various power states (Tick)
system.mem_ctrl.dram.power_state.pwrStateResidencyTicks::CLK_GATED   1874187672                       # Cumulative time (in ticks) in various power states (Tick)
system.mem_ctrl.dram.power_state.pwrStateResidencyTicks::SRAM_RETENTION   1874187672                       # Cumulative time (in ticks) in various power states (Tick)
system.mem_ctrl.dram.power_state.pwrStateResidencyTicks::OFF   1874187672                       # Cumulative time (in ticks) in various power states (Tick)
system.mem_ctrl.dram.rank0.actEnergy          1028160                       # Energy for activate commands per rank (pJ) (Joule)
system.mem_ctrl.dram.rank0.preEnergy           523710                       # Energy for precharge commands per rank (pJ) (Joule)
system.mem_ctrl.dram.rank0.readEnergy         6654480                       # Energy for read commands per rank (pJ) (Joule)
system.mem_ctrl.dram.rank0.writeEnergy              0                       # Energy for write commands per rank (pJ) (Joule)
system.mem_ctrl.dram.rank0.refreshEnergy 147513600.000000                       # Energy for refresh commands per rank (pJ) (Joule)
system.mem_ctrl.dram.rank0.actBackEnergy     86581290                       # Energy for active background per rank (pJ) (Joule)
system.mem_ctrl.dram.rank0.preBackEnergy    646777920                       # Energy for precharge background per rank (pJ) (Joule)
system.mem_ctrl.dram.rank0.actPowerDownEnergy            0                       # Energy for active power-down per rank (pJ) (Joule)
system.mem_ctrl.dram.rank0.prePowerDownEnergy            0                       # Energy for precharge power-down per rank (pJ) (Joule)
system.mem_ctrl.dram.rank0.selfRefreshEnergy            0                       # Energy for self refresh per rank (pJ) (Joule)
system.mem_ctrl.dram.rank0.totalEnergy      889079160                       # Total energy per rank (pJ) (Joule)
system.mem_ctrl.dram.rank0.averagePower    474.381074                       # Core power per rank (mW) (Watt)
system.mem_ctrl.dram.rank0.totalIdleTime            0                       # Total Idle time Per DRAM Rank (Tick)
system.mem_ctrl.dram.rank0.pwrStateTime::IDLE   1874187672                       # Time in different power states (Tick)
system.mem_ctrl.dram.rank0.pwrStateTime::REF   1874187672                       # Time in different power states (Tick)
system.mem_ctrl.dram.rank0.pwrStateTime::SREF   1874187672                       # Time in different power states (Tick)
system.mem_ctrl.dram.rank0.pwrStateTime::PRE_PDN   1874187672                       # Time in different power states (Tick)
system.mem_ctrl.dram.rank0.pwrStateTime::ACT   1874187672                       # Time in different power states (Tick)
system.mem_ctrl.dram.rank0.pwrStateTime::ACT_PDN   1874187672                       # Time in different power states (Tick)
system.mem_ctrl.dram.rank1.actEnergy           821100                       # Energy for activate commands per rank (pJ) (Joule)
system.mem_ctrl.dram.rank1.preEnergy           417450                       # Energy for precharge commands per rank (pJ) (Joule)
system.mem_ctrl.dram.rank1.readEnergy         3862740                       # Energy for read commands per rank (pJ) (Joule)
system.mem_ctrl.dram.rank1.writeEnergy              0                       # Energy for write commands per rank (pJ) (Joule)
system.mem_ctrl.dram.rank1.refreshEnergy 147513600.000000                       # Energy for refresh commands per rank (pJ) (Joule)
system.mem_ctrl.dram.rank1.actBackEnergy     56581620                       # Energy for active background per rank (pJ) (Joule)
system.mem_ctrl.dram.rank1.preBackEnergy    672040800                       # Energy for precharge background per rank (pJ) (Joule)
system.mem_ctrl.dram.rank1.actPowerDownEnergy            0                       # Energy for active power-down per rank (pJ) (Joule)
system.mem_ctrl.dram.rank1.prePowerDownEnergy            0                       # Energy for precharge power-down per rank (pJ) (Joule)
system.mem_ctrl.dram.rank1.selfRefreshEnergy            0                       # Energy for self refresh per rank (pJ) (Joule)
system.mem_ctrl.dram.rank1.totalEnergy      881237310                       # Total energy per rank (pJ) (Joule)
system.mem_ctrl.dram.rank1.averagePower    470.196941                       # Core power per rank (mW) (Watt)
system.mem_ctrl.dram.rank1.totalIdleTime            0                       # Total Idle time Per DRAM Rank (Tick)
system.mem_ctrl.dram.rank1.pwrStateTime::IDLE   1874187672                       # Time in different power states (Tick)
system.mem_ctrl.dram.rank1.pwrStateTime::REF   1874187672                       # Time in different power states (Tick)
system.mem_ctrl.dram.rank1.pwrStateTime::SREF   1874187672                       # Time in different power states (Tick)
system.mem_ctrl.dram.rank1.pwrStateTime::PRE_PDN   1874187672                       # Time in different power states (Tick)
system.mem_ctrl.dram.rank1.pwrStateTime::ACT   1874187672                       # Time in different power states (Tick)
system.mem_ctrl.dram.rank1.pwrStateTime::ACT_PDN   1874187672                       # Time in different power states (Tick)
system.mem_ctrl.power_state.pwrStateResidencyTicks::UNDEFINED   1874187672                       # Cumulative time (in ticks) in various power states (Tick)
system.mem_ctrl.power_state.pwrStateResidencyTicks::ON   1874187672                       # Cumulative time (in ticks) in various power states (Tick)
system.mem_ctrl.power_state.pwrStateResidencyTicks::CLK_GATED   1874187672                       # Cumulative time (in ticks) in various power states (Tick)
system.mem_ctrl.power_state.pwrStateResidencyTicks::SRAM_RETENTION   1874187672                       # Cumulative time (in ticks) in various power states (Tick)
system.mem_ctrl.power_state.pwrStateResidencyTicks::OFF   1874187672                       # Cumulative time (in ticks) in various power states (Tick)
system.membus.transDist::InvalidCmd              3444                       # Transaction distribution (Count)
system.membus.transDist::ReadReq                 3444                       # Transaction distribution (Count)
system.membus.transDist::ReadResp                3444                       # Transaction distribution (Count)
system.membus.transDist::ReadRespWithInvalidate         3444                       # Transaction distribution (Count)
system.membus.transDist::WriteReq                3444                       # Transaction distribution (Count)
system.membus.transDist::WriteResp               3444                       # Transaction distribution (Count)
system.membus.transDist::WriteCompleteResp         3444                       # Transaction distribution (Count)
system.membus.transDist::WritebackDirty          3444                       # Transaction distribution (Count)
system.membus.transDist::WritebackClean          3444                       # Transaction distribution (Count)
system.membus.transDist::WriteClean              3444                       # Transaction distribution (Count)
system.membus.transDist::CleanEvict              3444                       # Transaction distribution (Count)
system.membus.transDist::SoftPFReq               3444                       # Transaction distribution (Count)
system.membus.transDist::SoftPFExReq             3444                       # Transaction distribution (Count)
system.membus.transDist::HardPFReq               3444                       # Transaction distribution (Count)
system.membus.transDist::SoftPFResp              3444                       # Transaction distribution (Count)
system.membus.transDist::HardPFResp              3444                       # Transaction distribution (Count)
system.membus.transDist::WriteLineReq            3444                       # Transaction distribution (Count)
system.membus.transDist::UpgradeReq              3444                       # Transaction distribution (Count)
system.membus.transDist::SCUpgradeReq            3444                       # Transaction distribution (Count)
system.membus.transDist::UpgradeResp             3444                       # Transaction distribution (Count)
system.membus.transDist::SCUpgradeFailReq         3444                       # Transaction distribution (Count)
system.membus.transDist::UpgradeFailResp         3444                       # Transaction distribution (Count)
system.membus.transDist::ReadExReq               3444                       # Transaction distribution (Count)
system.membus.transDist::ReadExResp              3444                       # Transaction distribution (Count)
system.membus.transDist::ReadCleanReq            3444                       # Transaction distribution (Count)
system.membus.transDist::ReadSharedReq           3444                       # Transaction distribution (Count)
system.membus.transDist::LoadLockedReq           3444                       # Transaction distribution (Count)
system.membus.transDist::StoreCondReq            3444                       # Transaction distribution (Count)
system.membus.transDist::StoreCondFailReq         3444                       # Transaction distribution (Count)
system.membus.transDist::StoreCondResp           3444                       # Transaction distribution (Count)
system.membus.transDist::SwapReq                 3444                       # Transaction distribution (Count)
system.membus.transDist::SwapResp                3444                       # Transaction distribution (Count)
system.membus.transDist::Deprecated_MessageReq         3444                       # Transaction distribution (Count)
system.membus.transDist::Deprecated_MessageResp         3444                       # Transaction distribution (Count)
system.membus.transDist::MemFenceReq             3444                       # Transaction distribution (Count)
system.membus.transDist::MemSyncReq              3444                       # Transaction distribution (Count)
system.membus.transDist::MemSyncResp             3444                       # Transaction distribution (Count)
system.membus.transDist::MemFenceResp            3444                       # Transaction distribution (Count)
system.membus.transDist::CleanSharedReq          3444                       # Transaction distribution (Count)
system.membus.transDist::CleanSharedResp         3444                       # Transaction distribution (Count)
system.membus.transDist::CleanInvalidReq         3444                       # Transaction distribution (Count)
system.membus.transDist::CleanInvalidResp         3444                       # Transaction distribution (Count)
system.membus.transDist::InvalidDestError         3444                       # Transaction distribution (Count)
system.membus.transDist::BadAddressError         3444                       # Transaction distribution (Count)
system.membus.transDist::FunctionalReadError         3444                       # Transaction distribution (Count)
system.membus.transDist::FunctionalWriteError         3444                       # Transaction distribution (Count)
system.membus.transDist::PrintReq                3444                       # Transaction distribution (Count)
system.membus.transDist::FlushReq                3444                       # Transaction distribution (Count)
system.membus.transDist::InvalidateReq           3444                       # Transaction distribution (Count)
system.membus.transDist::InvalidateResp          3444                       # Transaction distribution (Count)
system.membus.transDist::HTMReq                  3444                       # Transaction distribution (Count)
system.membus.transDist::HTMReqResp              3444                       # Transaction distribution (Count)
system.membus.transDist::HTMAbort                3444                       # Transaction distribution (Count)
system.membus.pktCount_system.l2cache.mem_side_port::system.mem_ctrl.port         3444                       # Packet count per connected requestor and responder (Count)
system.membus.pktCount_system_port::system.mem_ctrl.port         3444                       # Packet count per connected requestor and responder (Count)
system.membus.pktCount::total                    6888                       # Packet count per connected requestor and responder (Count)
system.membus.pktSize_system.l2cache.mem_side_port::system.mem_ctrl.port        94208                       # Cumulative packet size per connected requestor and responder (Byte)
system.membus.pktSize_system_port::system.mem_ctrl.port        94208                       # Cumulative packet size per connected requestor and responder (Byte)
system.membus.pktSize::total                   188416                       # Cumulative packet size per connected requestor and responder (Byte)
system.membus.snoops                                0                       # Total snoops (Count)
system.membus.snoopTraffic                          0                       # Total snoop traffic (Byte)
system.membus.snoopFanout::samples               1972                       # Request fanout histogram (Count)
system.membus.snoopFanout::mean                     0                       # Request fanout histogram (Count)
system.membus.snoopFanout::stdev                    0                       # Request fanout histogram (Count)
system.membus.snoopFanout::underflows               0      0.00%      0.00% # Request fanout histogram (Count)
system.membus.snoopFanout::0                     1972    100.00%    100.00% # Request fanout histogram (Count)
system.membus.snoopFanout::1                        0      0.00%    100.00% # Request fanout histogram (Count)
system.membus.snoopFanout::overflows                0      0.00%    100.00% # Request fanout histogram (Count)
system.membus.snoopFanout::min_value                0                       # Request fanout histogram (Count)
system.membus.snoopFanout::max_value                0                       # Request fanout histogram (Count)
system.membus.snoopFanout::total                 1972                       # Request fanout histogram (Count)
system.membus.power_state.pwrStateResidencyTicks::UNDEFINED   1874187672                       # Cumulative time (in ticks) in various power states (Tick)
system.membus.power_state.pwrStateResidencyTicks::ON   1874187672                       # Cumulative time (in ticks) in various power states (Tick)
system.membus.power_state.pwrStateResidencyTicks::CLK_GATED   1874187672                       # Cumulative time (in ticks) in various power states (Tick)
system.membus.power_state.pwrStateResidencyTicks::SRAM_RETENTION   1874187672                       # Cumulative time (in ticks) in various power states (Tick)
system.membus.power_state.pwrStateResidencyTicks::OFF   1874187672                       # Cumulative time (in ticks) in various power states (Tick)
system.membus.reqLayer0.occupancy             1303673                       # Layer occupancy (ticks) (Tick)
system.membus.reqLayer0.utilization               0.0                       # Layer utilization (Ratio)
system.membus.respLayer0.occupancy            4571680                       # Layer occupancy (ticks) (Tick)
system.membus.respLayer0.utilization              0.0                       # Layer utilization (Ratio)
system.membus.snoop_filter.totRequests           1972                       # Total number of requests made to the snoop filter. (Count)
system.membus.snoop_filter.hitSingleRequests            3                       # Number of requests hitting in the snoop filter with a single holder of the requested data. (Count)
system.membus.snoop_filter.hitMultiRequests            0                       # Number of requests hitting in the snoop filter with multiple (>1) holders of the requested data. (Count)
system.membus.snoop_filter.totSnoops                0                       # Total number of snoops made to the snoop filter. (Count)
system.membus.snoop_filter.hitSingleSnoops            0                       # Number of snoops hitting in the snoop filter with a single holder of the requested data. (Count)
system.membus.snoop_filter.hitMultiSnoops            0                       # Number of snoops hitting in the snoop filter with multiple (>1) holders of the requested data. (Count)
system.workload.inst.arm                            0                       # number of arm instructions executed (Count)
system.workload.inst.quiesce                        0                       # number of quiesce instructions executed (Count)

---------- End Simulation Statistics   ----------
