
---------- Begin Simulation Statistics ----------
simSeconds                                   0.312945                       # Number of seconds simulated (Second)
simTicks                                 312944560000                       # Number of ticks simulated (Tick)
finalTick                                312944560000                       # Number of ticks from beginning of simulation (restored from checkpoints and never reset) (Tick)
simFreq                                  1000000000000                       # The number of ticks per simulated second ((Tick/Second))
hostSeconds                                   4260.16                       # Real time elapsed on the host (Second)
hostTickRate                                 73458478                       # The number of ticks simulated per host second (ticks/s) ((Tick/Second))
hostMemory                                    9319440                       # Number of bytes of host memory used (Byte)
simInsts                                    508589436                       # Number of instructions simulated (Count)
simOps                                      916480109                       # Number of ops (including micro ops) simulated (Count)
hostInstRate                                   119383                       # Simulator instruction rate (inst/s) ((Count/Second))
hostOpRate                                     215128                       # Simulator op (including micro ops) rate (op/s) ((Count/Second))
system.clk_domain.clock                           500                       # Clock period in ticks (Tick)
system.clk_domain.voltage_domain.voltage     1.100000                       # Voltage in Volts (Volt)
system.cpu0.numCycles                       625889121                       # Number of cpu cycles simulated (Cycle)
system.cpu0.cpi                              1.230637                       # CPI: cycles per instruction (core level) ((Cycle/Count))
system.cpu0.ipc                              0.812587                       # IPC: instructions per cycle (core level) ((Count/Cycle))
system.cpu0.numWorkItemsStarted                     0                       # Number of work items this cpu started (Count)
system.cpu0.numWorkItemsCompleted                   0                       # Number of work items this cpu completed (Count)
system.cpu0.instsAdded                     1002243889                       # Number of instructions added to the IQ (excludes non-spec) (Count)
system.cpu0.nonSpecInstsAdded                   46135                       # Number of non-speculative instructions added to the IQ (Count)
system.cpu0.instsIssued                     975171923                       # Number of instructions issued (Count)
system.cpu0.squashedInstsIssued                291212                       # Number of squashed instructions issued (Count)
system.cpu0.squashedInstsExamined            85809909                       # Number of squashed instructions iterated over during squash; mainly for profiling (Count)
system.cpu0.squashedOperandsExamined        152015800                       # Number of squashed operands that are examined and possibly removed from graph (Count)
system.cpu0.squashedNonSpecRemoved               9046                       # Number of squashed non-spec instructions that were removed (Count)
system.cpu0.numIssuedDist::samples          588297973                       # Number of insts issued each cycle (Count)
system.cpu0.numIssuedDist::mean              1.657616                       # Number of insts issued each cycle (Count)
system.cpu0.numIssuedDist::stdev             2.355660                       # Number of insts issued each cycle (Count)
system.cpu0.numIssuedDist::underflows               0      0.00%      0.00% # Number of insts issued each cycle (Count)
system.cpu0.numIssuedDist::0                333192895     56.64%     56.64% # Number of insts issued each cycle (Count)
system.cpu0.numIssuedDist::1                 41694947      7.09%     63.72% # Number of insts issued each cycle (Count)
system.cpu0.numIssuedDist::2                 45317616      7.70%     71.43% # Number of insts issued each cycle (Count)
system.cpu0.numIssuedDist::3                 38650580      6.57%     78.00% # Number of insts issued each cycle (Count)
system.cpu0.numIssuedDist::4                 34714671      5.90%     83.90% # Number of insts issued each cycle (Count)
system.cpu0.numIssuedDist::5                 30276405      5.15%     89.04% # Number of insts issued each cycle (Count)
system.cpu0.numIssuedDist::6                 28673463      4.87%     93.92% # Number of insts issued each cycle (Count)
system.cpu0.numIssuedDist::7                 21610651      3.67%     97.59% # Number of insts issued each cycle (Count)
system.cpu0.numIssuedDist::8                 14166745      2.41%    100.00% # Number of insts issued each cycle (Count)
system.cpu0.numIssuedDist::overflows                0      0.00%    100.00% # Number of insts issued each cycle (Count)
system.cpu0.numIssuedDist::min_value                0                       # Number of insts issued each cycle (Count)
system.cpu0.numIssuedDist::max_value                8                       # Number of insts issued each cycle (Count)
system.cpu0.numIssuedDist::total            588297973                       # Number of insts issued each cycle (Count)
system.cpu0.statFuBusy::No_OpClass                  0      0.00%      0.00% # attempts to use FU when none available (Count)
system.cpu0.statFuBusy::IntAlu                8195088     72.63%     72.63% # attempts to use FU when none available (Count)
system.cpu0.statFuBusy::IntMult                     0      0.00%     72.63% # attempts to use FU when none available (Count)
system.cpu0.statFuBusy::IntDiv                      0      0.00%     72.63% # attempts to use FU when none available (Count)
system.cpu0.statFuBusy::FloatAdd                    0      0.00%     72.63% # attempts to use FU when none available (Count)
system.cpu0.statFuBusy::FloatCmp                    0      0.00%     72.63% # attempts to use FU when none available (Count)
system.cpu0.statFuBusy::FloatCvt                    0      0.00%     72.63% # attempts to use FU when none available (Count)
system.cpu0.statFuBusy::FloatMult                   0      0.00%     72.63% # attempts to use FU when none available (Count)
system.cpu0.statFuBusy::FloatMultAcc                0      0.00%     72.63% # attempts to use FU when none available (Count)
system.cpu0.statFuBusy::FloatDiv                    0      0.00%     72.63% # attempts to use FU when none available (Count)
system.cpu0.statFuBusy::FloatMisc                   0      0.00%     72.63% # attempts to use FU when none available (Count)
system.cpu0.statFuBusy::FloatSqrt                   0      0.00%     72.63% # attempts to use FU when none available (Count)
system.cpu0.statFuBusy::SimdAdd                    85      0.00%     72.63% # attempts to use FU when none available (Count)
system.cpu0.statFuBusy::SimdAddAcc                  0      0.00%     72.63% # attempts to use FU when none available (Count)
system.cpu0.statFuBusy::SimdAlu                 44464      0.39%     73.02% # attempts to use FU when none available (Count)
system.cpu0.statFuBusy::SimdCmp                    43      0.00%     73.02% # attempts to use FU when none available (Count)
system.cpu0.statFuBusy::SimdCvt                  1585      0.01%     73.04% # attempts to use FU when none available (Count)
system.cpu0.statFuBusy::SimdMisc                 4539      0.04%     73.08% # attempts to use FU when none available (Count)
system.cpu0.statFuBusy::SimdMult                    0      0.00%     73.08% # attempts to use FU when none available (Count)
system.cpu0.statFuBusy::SimdMultAcc                 0      0.00%     73.08% # attempts to use FU when none available (Count)
system.cpu0.statFuBusy::SimdMatMultAcc              0      0.00%     73.08% # attempts to use FU when none available (Count)
system.cpu0.statFuBusy::SimdShift                 404      0.00%     73.08% # attempts to use FU when none available (Count)
system.cpu0.statFuBusy::SimdShiftAcc                0      0.00%     73.08% # attempts to use FU when none available (Count)
system.cpu0.statFuBusy::SimdDiv                     0      0.00%     73.08% # attempts to use FU when none available (Count)
system.cpu0.statFuBusy::SimdSqrt                    0      0.00%     73.08% # attempts to use FU when none available (Count)
system.cpu0.statFuBusy::SimdFloatAdd              319      0.00%     73.08% # attempts to use FU when none available (Count)
system.cpu0.statFuBusy::SimdFloatAlu                0      0.00%     73.08% # attempts to use FU when none available (Count)
system.cpu0.statFuBusy::SimdFloatCmp                0      0.00%     73.08% # attempts to use FU when none available (Count)
system.cpu0.statFuBusy::SimdFloatCvt                0      0.00%     73.08% # attempts to use FU when none available (Count)
system.cpu0.statFuBusy::SimdFloatDiv                0      0.00%     73.08% # attempts to use FU when none available (Count)
system.cpu0.statFuBusy::SimdFloatMisc               0      0.00%     73.08% # attempts to use FU when none available (Count)
system.cpu0.statFuBusy::SimdFloatMult             319      0.00%     73.09% # attempts to use FU when none available (Count)
system.cpu0.statFuBusy::SimdFloatMultAcc            0      0.00%     73.09% # attempts to use FU when none available (Count)
system.cpu0.statFuBusy::SimdFloatMatMultAcc            0      0.00%     73.09% # attempts to use FU when none available (Count)
system.cpu0.statFuBusy::SimdFloatSqrt               0      0.00%     73.09% # attempts to use FU when none available (Count)
system.cpu0.statFuBusy::SimdReduceAdd               0      0.00%     73.09% # attempts to use FU when none available (Count)
system.cpu0.statFuBusy::SimdReduceAlu               0      0.00%     73.09% # attempts to use FU when none available (Count)
system.cpu0.statFuBusy::SimdReduceCmp               0      0.00%     73.09% # attempts to use FU when none available (Count)
system.cpu0.statFuBusy::SimdFloatReduceAdd            0      0.00%     73.09% # attempts to use FU when none available (Count)
system.cpu0.statFuBusy::SimdFloatReduceCmp            0      0.00%     73.09% # attempts to use FU when none available (Count)
system.cpu0.statFuBusy::SimdAes                     0      0.00%     73.09% # attempts to use FU when none available (Count)
system.cpu0.statFuBusy::SimdAesMix                  0      0.00%     73.09% # attempts to use FU when none available (Count)
system.cpu0.statFuBusy::SimdSha1Hash                0      0.00%     73.09% # attempts to use FU when none available (Count)
system.cpu0.statFuBusy::SimdSha1Hash2               0      0.00%     73.09% # attempts to use FU when none available (Count)
system.cpu0.statFuBusy::SimdSha256Hash              0      0.00%     73.09% # attempts to use FU when none available (Count)
system.cpu0.statFuBusy::SimdSha256Hash2             0      0.00%     73.09% # attempts to use FU when none available (Count)
system.cpu0.statFuBusy::SimdShaSigma2               0      0.00%     73.09% # attempts to use FU when none available (Count)
system.cpu0.statFuBusy::SimdShaSigma3               0      0.00%     73.09% # attempts to use FU when none available (Count)
system.cpu0.statFuBusy::SimdPredAlu                 0      0.00%     73.09% # attempts to use FU when none available (Count)
system.cpu0.statFuBusy::Matrix                      0      0.00%     73.09% # attempts to use FU when none available (Count)
system.cpu0.statFuBusy::MatrixMov                   0      0.00%     73.09% # attempts to use FU when none available (Count)
system.cpu0.statFuBusy::MatrixOP                    0      0.00%     73.09% # attempts to use FU when none available (Count)
system.cpu0.statFuBusy::MemRead               2097940     18.59%     91.68% # attempts to use FU when none available (Count)
system.cpu0.statFuBusy::MemWrite               815265      7.23%     98.91% # attempts to use FU when none available (Count)
system.cpu0.statFuBusy::FloatMemRead            38058      0.34%     99.24% # attempts to use FU when none available (Count)
system.cpu0.statFuBusy::FloatMemWrite           85490      0.76%    100.00% # attempts to use FU when none available (Count)
system.cpu0.statFuBusy::IprAccess                   0      0.00%    100.00% # attempts to use FU when none available (Count)
system.cpu0.statFuBusy::InstPrefetch                0      0.00%    100.00% # attempts to use FU when none available (Count)
system.cpu0.statFuBusy::VectorUnitStrideLoad            0      0.00%    100.00% # attempts to use FU when none available (Count)
system.cpu0.statFuBusy::VectorUnitStrideStore            0      0.00%    100.00% # attempts to use FU when none available (Count)
system.cpu0.statFuBusy::VectorUnitStrideMaskLoad            0      0.00%    100.00% # attempts to use FU when none available (Count)
system.cpu0.statFuBusy::VectorUnitStrideMaskStore            0      0.00%    100.00% # attempts to use FU when none available (Count)
system.cpu0.statFuBusy::VectorStridedLoad            0      0.00%    100.00% # attempts to use FU when none available (Count)
system.cpu0.statFuBusy::VectorStridedStore            0      0.00%    100.00% # attempts to use FU when none available (Count)
system.cpu0.statFuBusy::VectorIndexedLoad            0      0.00%    100.00% # attempts to use FU when none available (Count)
system.cpu0.statFuBusy::VectorIndexedStore            0      0.00%    100.00% # attempts to use FU when none available (Count)
system.cpu0.statFuBusy::VectorUnitStrideFaultOnlyFirstLoad            0      0.00%    100.00% # attempts to use FU when none available (Count)
system.cpu0.statFuBusy::VectorWholeRegisterLoad            0      0.00%    100.00% # attempts to use FU when none available (Count)
system.cpu0.statFuBusy::VectorWholeRegisterStore            0      0.00%    100.00% # attempts to use FU when none available (Count)
system.cpu0.statFuBusy::VectorIntegerArith            0      0.00%    100.00% # attempts to use FU when none available (Count)
system.cpu0.statFuBusy::VectorFloatArith            0      0.00%    100.00% # attempts to use FU when none available (Count)
system.cpu0.statFuBusy::VectorFloatConvert            0      0.00%    100.00% # attempts to use FU when none available (Count)
system.cpu0.statFuBusy::VectorIntegerReduce            0      0.00%    100.00% # attempts to use FU when none available (Count)
system.cpu0.statFuBusy::VectorFloatReduce            0      0.00%    100.00% # attempts to use FU when none available (Count)
system.cpu0.statFuBusy::VectorMisc                  0      0.00%    100.00% # attempts to use FU when none available (Count)
system.cpu0.statFuBusy::VectorIntegerExtension            0      0.00%    100.00% # attempts to use FU when none available (Count)
system.cpu0.statFuBusy::VectorConfig                0      0.00%    100.00% # attempts to use FU when none available (Count)
system.cpu0.statIssuedInstType_0::No_OpClass     13026400      1.34%      1.34% # Number of instructions issued per FU type, per thread (Count)
system.cpu0.statIssuedInstType_0::IntAlu    710272208     72.84%     74.17% # Number of instructions issued per FU type, per thread (Count)
system.cpu0.statIssuedInstType_0::IntMult       322934      0.03%     74.20% # Number of instructions issued per FU type, per thread (Count)
system.cpu0.statIssuedInstType_0::IntDiv       496401      0.05%     74.26% # Number of instructions issued per FU type, per thread (Count)
system.cpu0.statIssuedInstType_0::FloatAdd      1626307      0.17%     74.42% # Number of instructions issued per FU type, per thread (Count)
system.cpu0.statIssuedInstType_0::FloatCmp           22      0.00%     74.42% # Number of instructions issued per FU type, per thread (Count)
system.cpu0.statIssuedInstType_0::FloatCvt           64      0.00%     74.42% # Number of instructions issued per FU type, per thread (Count)
system.cpu0.statIssuedInstType_0::FloatMult            7      0.00%     74.42% # Number of instructions issued per FU type, per thread (Count)
system.cpu0.statIssuedInstType_0::FloatMultAcc            0      0.00%     74.42% # Number of instructions issued per FU type, per thread (Count)
system.cpu0.statIssuedInstType_0::FloatDiv           40      0.00%     74.42% # Number of instructions issued per FU type, per thread (Count)
system.cpu0.statIssuedInstType_0::FloatMisc            0      0.00%     74.42% # Number of instructions issued per FU type, per thread (Count)
system.cpu0.statIssuedInstType_0::FloatSqrt            0      0.00%     74.42% # Number of instructions issued per FU type, per thread (Count)
system.cpu0.statIssuedInstType_0::SimdAdd        21486      0.00%     74.42% # Number of instructions issued per FU type, per thread (Count)
system.cpu0.statIssuedInstType_0::SimdAddAcc            0      0.00%     74.42% # Number of instructions issued per FU type, per thread (Count)
system.cpu0.statIssuedInstType_0::SimdAlu      1369902      0.14%     74.56% # Number of instructions issued per FU type, per thread (Count)
system.cpu0.statIssuedInstType_0::SimdCmp         8957      0.00%     74.57% # Number of instructions issued per FU type, per thread (Count)
system.cpu0.statIssuedInstType_0::SimdCvt       155196      0.02%     74.58% # Number of instructions issued per FU type, per thread (Count)
system.cpu0.statIssuedInstType_0::SimdMisc      1675974      0.17%     74.75% # Number of instructions issued per FU type, per thread (Count)
system.cpu0.statIssuedInstType_0::SimdMult            0      0.00%     74.75% # Number of instructions issued per FU type, per thread (Count)
system.cpu0.statIssuedInstType_0::SimdMultAcc            0      0.00%     74.75% # Number of instructions issued per FU type, per thread (Count)
system.cpu0.statIssuedInstType_0::SimdMatMultAcc            0      0.00%     74.75% # Number of instructions issued per FU type, per thread (Count)
system.cpu0.statIssuedInstType_0::SimdShift        12708      0.00%     74.75% # Number of instructions issued per FU type, per thread (Count)
system.cpu0.statIssuedInstType_0::SimdShiftAcc            0      0.00%     74.75% # Number of instructions issued per FU type, per thread (Count)
system.cpu0.statIssuedInstType_0::SimdDiv            0      0.00%     74.75% # Number of instructions issued per FU type, per thread (Count)
system.cpu0.statIssuedInstType_0::SimdSqrt            0      0.00%     74.75% # Number of instructions issued per FU type, per thread (Count)
system.cpu0.statIssuedInstType_0::SimdFloatAdd       563086      0.06%     74.81% # Number of instructions issued per FU type, per thread (Count)
system.cpu0.statIssuedInstType_0::SimdFloatAlu            0      0.00%     74.81% # Number of instructions issued per FU type, per thread (Count)
system.cpu0.statIssuedInstType_0::SimdFloatCmp            1      0.00%     74.81% # Number of instructions issued per FU type, per thread (Count)
system.cpu0.statIssuedInstType_0::SimdFloatCvt       650936      0.07%     74.88% # Number of instructions issued per FU type, per thread (Count)
system.cpu0.statIssuedInstType_0::SimdFloatDiv        66974      0.01%     74.89% # Number of instructions issued per FU type, per thread (Count)
system.cpu0.statIssuedInstType_0::SimdFloatMisc            0      0.00%     74.89% # Number of instructions issued per FU type, per thread (Count)
system.cpu0.statIssuedInstType_0::SimdFloatMult       503716      0.05%     74.94% # Number of instructions issued per FU type, per thread (Count)
system.cpu0.statIssuedInstType_0::SimdFloatMultAcc            0      0.00%     74.94% # Number of instructions issued per FU type, per thread (Count)
system.cpu0.statIssuedInstType_0::SimdFloatMatMultAcc            0      0.00%     74.94% # Number of instructions issued per FU type, per thread (Count)
system.cpu0.statIssuedInstType_0::SimdFloatSqrt        10583      0.00%     74.94% # Number of instructions issued per FU type, per thread (Count)
system.cpu0.statIssuedInstType_0::SimdReduceAdd            0      0.00%     74.94% # Number of instructions issued per FU type, per thread (Count)
system.cpu0.statIssuedInstType_0::SimdReduceAlu            0      0.00%     74.94% # Number of instructions issued per FU type, per thread (Count)
system.cpu0.statIssuedInstType_0::SimdReduceCmp            0      0.00%     74.94% # Number of instructions issued per FU type, per thread (Count)
system.cpu0.statIssuedInstType_0::SimdFloatReduceAdd            0      0.00%     74.94% # Number of instructions issued per FU type, per thread (Count)
system.cpu0.statIssuedInstType_0::SimdFloatReduceCmp            0      0.00%     74.94% # Number of instructions issued per FU type, per thread (Count)
system.cpu0.statIssuedInstType_0::SimdAes            0      0.00%     74.94% # Number of instructions issued per FU type, per thread (Count)
system.cpu0.statIssuedInstType_0::SimdAesMix            0      0.00%     74.94% # Number of instructions issued per FU type, per thread (Count)
system.cpu0.statIssuedInstType_0::SimdSha1Hash            0      0.00%     74.94% # Number of instructions issued per FU type, per thread (Count)
system.cpu0.statIssuedInstType_0::SimdSha1Hash2            0      0.00%     74.94% # Number of instructions issued per FU type, per thread (Count)
system.cpu0.statIssuedInstType_0::SimdSha256Hash            0      0.00%     74.94% # Number of instructions issued per FU type, per thread (Count)
system.cpu0.statIssuedInstType_0::SimdSha256Hash2            0      0.00%     74.94% # Number of instructions issued per FU type, per thread (Count)
system.cpu0.statIssuedInstType_0::SimdShaSigma2            0      0.00%     74.94% # Number of instructions issued per FU type, per thread (Count)
system.cpu0.statIssuedInstType_0::SimdShaSigma3            0      0.00%     74.94% # Number of instructions issued per FU type, per thread (Count)
system.cpu0.statIssuedInstType_0::SimdPredAlu            0      0.00%     74.94% # Number of instructions issued per FU type, per thread (Count)
system.cpu0.statIssuedInstType_0::Matrix            0      0.00%     74.94% # Number of instructions issued per FU type, per thread (Count)
system.cpu0.statIssuedInstType_0::MatrixMov            0      0.00%     74.94% # Number of instructions issued per FU type, per thread (Count)
system.cpu0.statIssuedInstType_0::MatrixOP            0      0.00%     74.94% # Number of instructions issued per FU type, per thread (Count)
system.cpu0.statIssuedInstType_0::MemRead    160368779     16.45%     91.38% # Number of instructions issued per FU type, per thread (Count)
system.cpu0.statIssuedInstType_0::MemWrite     79654621      8.17%     99.55% # Number of instructions issued per FU type, per thread (Count)
system.cpu0.statIssuedInstType_0::FloatMemRead      2006724      0.21%     99.76% # Number of instructions issued per FU type, per thread (Count)
system.cpu0.statIssuedInstType_0::FloatMemWrite      2357897      0.24%    100.00% # Number of instructions issued per FU type, per thread (Count)
system.cpu0.statIssuedInstType_0::IprAccess            0      0.00%    100.00% # Number of instructions issued per FU type, per thread (Count)
system.cpu0.statIssuedInstType_0::InstPrefetch            0      0.00%    100.00% # Number of instructions issued per FU type, per thread (Count)
system.cpu0.statIssuedInstType_0::VectorUnitStrideLoad            0      0.00%    100.00% # Number of instructions issued per FU type, per thread (Count)
system.cpu0.statIssuedInstType_0::VectorUnitStrideStore            0      0.00%    100.00% # Number of instructions issued per FU type, per thread (Count)
system.cpu0.statIssuedInstType_0::VectorUnitStrideMaskLoad            0      0.00%    100.00% # Number of instructions issued per FU type, per thread (Count)
system.cpu0.statIssuedInstType_0::VectorUnitStrideMaskStore            0      0.00%    100.00% # Number of instructions issued per FU type, per thread (Count)
system.cpu0.statIssuedInstType_0::VectorStridedLoad            0      0.00%    100.00% # Number of instructions issued per FU type, per thread (Count)
system.cpu0.statIssuedInstType_0::VectorStridedStore            0      0.00%    100.00% # Number of instructions issued per FU type, per thread (Count)
system.cpu0.statIssuedInstType_0::VectorIndexedLoad            0      0.00%    100.00% # Number of instructions issued per FU type, per thread (Count)
system.cpu0.statIssuedInstType_0::VectorIndexedStore            0      0.00%    100.00% # Number of instructions issued per FU type, per thread (Count)
system.cpu0.statIssuedInstType_0::VectorUnitStrideFaultOnlyFirstLoad            0      0.00%    100.00% # Number of instructions issued per FU type, per thread (Count)
system.cpu0.statIssuedInstType_0::VectorWholeRegisterLoad            0      0.00%    100.00% # Number of instructions issued per FU type, per thread (Count)
system.cpu0.statIssuedInstType_0::VectorWholeRegisterStore            0      0.00%    100.00% # Number of instructions issued per FU type, per thread (Count)
system.cpu0.statIssuedInstType_0::VectorIntegerArith            0      0.00%    100.00% # Number of instructions issued per FU type, per thread (Count)
system.cpu0.statIssuedInstType_0::VectorFloatArith            0      0.00%    100.00% # Number of instructions issued per FU type, per thread (Count)
system.cpu0.statIssuedInstType_0::VectorFloatConvert            0      0.00%    100.00% # Number of instructions issued per FU type, per thread (Count)
system.cpu0.statIssuedInstType_0::VectorIntegerReduce            0      0.00%    100.00% # Number of instructions issued per FU type, per thread (Count)
system.cpu0.statIssuedInstType_0::VectorFloatReduce            0      0.00%    100.00% # Number of instructions issued per FU type, per thread (Count)
system.cpu0.statIssuedInstType_0::VectorMisc            0      0.00%    100.00% # Number of instructions issued per FU type, per thread (Count)
system.cpu0.statIssuedInstType_0::VectorIntegerExtension            0      0.00%    100.00% # Number of instructions issued per FU type, per thread (Count)
system.cpu0.statIssuedInstType_0::VectorConfig            0      0.00%    100.00% # Number of instructions issued per FU type, per thread (Count)
system.cpu0.statIssuedInstType_0::total     975171923                       # Number of instructions issued per FU type, per thread (Count)
system.cpu0.issueRate                        1.558059                       # Inst issue rate ((Count/Cycle))
system.cpu0.fuBusy                           11283599                       # FU busy when requested (Count)
system.cpu0.fuBusyRate                       0.011571                       # FU busy rate (busy events/executed inst) ((Count/Count))
system.cpu0.intInstQueueReads              2526462642                       # Number of integer instruction queue reads (Count)
system.cpu0.intInstQueueWrites             1075248801                       # Number of integer instruction queue writes (Count)
system.cpu0.intInstQueueWakeupAccesses      955553364                       # Number of integer instruction queue wakeup accesses (Count)
system.cpu0.fpInstQueueReads                 23753988                       # Number of floating instruction queue reads (Count)
system.cpu0.fpInstQueueWrites                12900884                       # Number of floating instruction queue writes (Count)
system.cpu0.fpInstQueueWakeupAccesses        11615423                       # Number of floating instruction queue wakeup accesses (Count)
system.cpu0.vecInstQueueReads                       0                       # Number of vector instruction queue reads (Count)
system.cpu0.vecInstQueueWrites                      0                       # Number of vector instruction queue writes (Count)
system.cpu0.vecInstQueueWakeupAccesses              0                       # Number of vector instruction queue wakeup accesses (Count)
system.cpu0.intAluAccesses                  961469883                       # Number of integer alu accesses (Count)
system.cpu0.fpAluAccesses                    11959239                       # Number of floating point alu accesses (Count)
system.cpu0.vecAluAccesses                          0                       # Number of vector alu accesses (Count)
system.cpu0.numSquashedInsts                  4671479                       # Number of squashed instructions skipped in execute (Count)
system.cpu0.numSwp                                  0                       # Number of swp insts executed (Count)
system.cpu0.timesIdled                        6137750                       # Number of times that the entire CPU went into an idle state and unscheduled itself (Count)
system.cpu0.idleCycles                       37591148                       # Total number of cycles that the CPU has spent unscheduled due to idling (Cycle)
system.cpu0.MemDepUnit__0.insertedLoads     166731833                       # Number of loads inserted to the mem dependence unit. (Count)
system.cpu0.MemDepUnit__0.insertedStores     84546572                       # Number of stores inserted to the mem dependence unit. (Count)
system.cpu0.MemDepUnit__0.conflictingLoads      4978296                       # Number of conflicting loads. (Count)
system.cpu0.MemDepUnit__0.conflictingStores      3516815                       # Number of conflicting stores. (Count)
system.cpu0.MemDepUnit__1.insertedLoads             0                       # Number of loads inserted to the mem dependence unit. (Count)
system.cpu0.MemDepUnit__1.insertedStores            0                       # Number of stores inserted to the mem dependence unit. (Count)
system.cpu0.MemDepUnit__1.conflictingLoads            0                       # Number of conflicting loads. (Count)
system.cpu0.MemDepUnit__1.conflictingStores            0                       # Number of conflicting stores. (Count)
system.cpu0.MemDepUnit__2.insertedLoads             0                       # Number of loads inserted to the mem dependence unit. (Count)
system.cpu0.MemDepUnit__2.insertedStores            0                       # Number of stores inserted to the mem dependence unit. (Count)
system.cpu0.MemDepUnit__2.conflictingLoads            0                       # Number of conflicting loads. (Count)
system.cpu0.MemDepUnit__2.conflictingStores            0                       # Number of conflicting stores. (Count)
system.cpu0.MemDepUnit__3.insertedLoads             0                       # Number of loads inserted to the mem dependence unit. (Count)
system.cpu0.MemDepUnit__3.insertedStores            0                       # Number of stores inserted to the mem dependence unit. (Count)
system.cpu0.MemDepUnit__3.conflictingLoads            0                       # Number of conflicting loads. (Count)
system.cpu0.MemDepUnit__3.conflictingStores            0                       # Number of conflicting stores. (Count)
system.cpu0.branchPred.lookups_0::NoBranch         8935      0.01%      0.01% # Number of BP lookups (Count)
system.cpu0.branchPred.lookups_0::Return      6230078      5.69%      5.70% # Number of BP lookups (Count)
system.cpu0.branchPred.lookups_0::CallDirect      3350421      3.06%      8.75% # Number of BP lookups (Count)
system.cpu0.branchPred.lookups_0::CallIndirect      3251831      2.97%     11.72% # Number of BP lookups (Count)
system.cpu0.branchPred.lookups_0::DirectCond     88031585     80.36%     92.08% # Number of BP lookups (Count)
system.cpu0.branchPred.lookups_0::DirectUncond      2381030      2.17%     94.25% # Number of BP lookups (Count)
system.cpu0.branchPred.lookups_0::IndirectCond            0      0.00%     94.25% # Number of BP lookups (Count)
system.cpu0.branchPred.lookups_0::IndirectUncond      6296289      5.75%    100.00% # Number of BP lookups (Count)
system.cpu0.branchPred.lookups_0::total     109550169                       # Number of BP lookups (Count)
system.cpu0.branchPred.squashes_0::NoBranch         8162      0.06%      0.06% # Number of branches that got squashed (completely removed) as an earlier branch was mispredicted. (Count)
system.cpu0.branchPred.squashes_0::Return       541122      4.14%      4.21% # Number of branches that got squashed (completely removed) as an earlier branch was mispredicted. (Count)
system.cpu0.branchPred.squashes_0::CallDirect       455889      3.49%      7.70% # Number of branches that got squashed (completely removed) as an earlier branch was mispredicted. (Count)
system.cpu0.branchPred.squashes_0::CallIndirect       457402      3.50%     11.20% # Number of branches that got squashed (completely removed) as an earlier branch was mispredicted. (Count)
system.cpu0.branchPred.squashes_0::DirectCond     10316911     79.00%     90.20% # Number of branches that got squashed (completely removed) as an earlier branch was mispredicted. (Count)
system.cpu0.branchPred.squashes_0::DirectUncond       370659      2.84%     93.04% # Number of branches that got squashed (completely removed) as an earlier branch was mispredicted. (Count)
system.cpu0.branchPred.squashes_0::IndirectCond            0      0.00%     93.04% # Number of branches that got squashed (completely removed) as an earlier branch was mispredicted. (Count)
system.cpu0.branchPred.squashes_0::IndirectUncond       909598      6.96%    100.00% # Number of branches that got squashed (completely removed) as an earlier branch was mispredicted. (Count)
system.cpu0.branchPred.squashes_0::total     13059743                       # Number of branches that got squashed (completely removed) as an earlier branch was mispredicted. (Count)
system.cpu0.branchPred.corrected_0::NoBranch         1866      0.07%      0.07% # Number of branches that got corrected but not yet commited. Branches get corrected by decode or after execute. Also a branch misprediction can be detected out-of-order. Therefore, a corrected branch might not end up beeing committed in case an even earlier branch was mispredicted (Count)
system.cpu0.branchPred.corrected_0::Return        12326      0.44%      0.51% # Number of branches that got corrected but not yet commited. Branches get corrected by decode or after execute. Also a branch misprediction can be detected out-of-order. Therefore, a corrected branch might not end up beeing committed in case an even earlier branch was mispredicted (Count)
system.cpu0.branchPred.corrected_0::CallDirect        94756      3.41%      3.92% # Number of branches that got corrected but not yet commited. Branches get corrected by decode or after execute. Also a branch misprediction can be detected out-of-order. Therefore, a corrected branch might not end up beeing committed in case an even earlier branch was mispredicted (Count)
system.cpu0.branchPred.corrected_0::CallIndirect       196019      7.06%     10.98% # Number of branches that got corrected but not yet commited. Branches get corrected by decode or after execute. Also a branch misprediction can be detected out-of-order. Therefore, a corrected branch might not end up beeing committed in case an even earlier branch was mispredicted (Count)
system.cpu0.branchPred.corrected_0::DirectCond      1300181     46.80%     57.78% # Number of branches that got corrected but not yet commited. Branches get corrected by decode or after execute. Also a branch misprediction can be detected out-of-order. Therefore, a corrected branch might not end up beeing committed in case an even earlier branch was mispredicted (Count)
system.cpu0.branchPred.corrected_0::DirectUncond        84102      3.03%     60.81% # Number of branches that got corrected but not yet commited. Branches get corrected by decode or after execute. Also a branch misprediction can be detected out-of-order. Therefore, a corrected branch might not end up beeing committed in case an even earlier branch was mispredicted (Count)
system.cpu0.branchPred.corrected_0::IndirectCond            0      0.00%     60.81% # Number of branches that got corrected but not yet commited. Branches get corrected by decode or after execute. Also a branch misprediction can be detected out-of-order. Therefore, a corrected branch might not end up beeing committed in case an even earlier branch was mispredicted (Count)
system.cpu0.branchPred.corrected_0::IndirectUncond      1088705     39.19%    100.00% # Number of branches that got corrected but not yet commited. Branches get corrected by decode or after execute. Also a branch misprediction can be detected out-of-order. Therefore, a corrected branch might not end up beeing committed in case an even earlier branch was mispredicted (Count)
system.cpu0.branchPred.corrected_0::total      2777955                       # Number of branches that got corrected but not yet commited. Branches get corrected by decode or after execute. Also a branch misprediction can be detected out-of-order. Therefore, a corrected branch might not end up beeing committed in case an even earlier branch was mispredicted (Count)
system.cpu0.branchPred.earlyResteers_0::NoBranch            0                       # Number of branches that got redirected after decode. (Count)
system.cpu0.branchPred.earlyResteers_0::Return            0                       # Number of branches that got redirected after decode. (Count)
system.cpu0.branchPred.earlyResteers_0::CallDirect            0                       # Number of branches that got redirected after decode. (Count)
system.cpu0.branchPred.earlyResteers_0::CallIndirect            0                       # Number of branches that got redirected after decode. (Count)
system.cpu0.branchPred.earlyResteers_0::DirectCond            0                       # Number of branches that got redirected after decode. (Count)
system.cpu0.branchPred.earlyResteers_0::DirectUncond            0                       # Number of branches that got redirected after decode. (Count)
system.cpu0.branchPred.earlyResteers_0::IndirectCond            0                       # Number of branches that got redirected after decode. (Count)
system.cpu0.branchPred.earlyResteers_0::IndirectUncond            0                       # Number of branches that got redirected after decode. (Count)
system.cpu0.branchPred.earlyResteers_0::total            0                       # Number of branches that got redirected after decode. (Count)
system.cpu0.branchPred.committed_0::NoBranch          773      0.00%      0.00% # Number of branches finally committed  (Count)
system.cpu0.branchPred.committed_0::Return      5688956      5.90%      5.90% # Number of branches finally committed  (Count)
system.cpu0.branchPred.committed_0::CallDirect      2894532      3.00%      8.90% # Number of branches finally committed  (Count)
system.cpu0.branchPred.committed_0::CallIndirect      2794429      2.90%     11.79% # Number of branches finally committed  (Count)
system.cpu0.branchPred.committed_0::DirectCond     77714671     80.54%     92.33% # Number of branches finally committed  (Count)
system.cpu0.branchPred.committed_0::DirectUncond      2010371      2.08%     94.42% # Number of branches finally committed  (Count)
system.cpu0.branchPred.committed_0::IndirectCond            0      0.00%     94.42% # Number of branches finally committed  (Count)
system.cpu0.branchPred.committed_0::IndirectUncond      5386691      5.58%    100.00% # Number of branches finally committed  (Count)
system.cpu0.branchPred.committed_0::total     96490423                       # Number of branches finally committed  (Count)
system.cpu0.branchPred.mispredicted_0::NoBranch          773      0.03%      0.03% # Number of committed branches that were mispredicted. (Count)
system.cpu0.branchPred.mispredicted_0::Return         3761      0.15%      0.18% # Number of committed branches that were mispredicted. (Count)
system.cpu0.branchPred.mispredicted_0::CallDirect        81544      3.16%      3.34% # Number of committed branches that were mispredicted. (Count)
system.cpu0.branchPred.mispredicted_0::CallIndirect       180196      6.99%     10.33% # Number of committed branches that were mispredicted. (Count)
system.cpu0.branchPred.mispredicted_0::DirectCond      1169629     45.37%     55.70% # Number of committed branches that were mispredicted. (Count)
system.cpu0.branchPred.mispredicted_0::DirectUncond        63687      2.47%     58.17% # Number of committed branches that were mispredicted. (Count)
system.cpu0.branchPred.mispredicted_0::IndirectCond            0      0.00%     58.17% # Number of committed branches that were mispredicted. (Count)
system.cpu0.branchPred.mispredicted_0::IndirectUncond      1078526     41.83%    100.00% # Number of committed branches that were mispredicted. (Count)
system.cpu0.branchPred.mispredicted_0::total      2578116                       # Number of committed branches that were mispredicted. (Count)
system.cpu0.branchPred.targetProvider_0::NoTarget     78638691     71.78%     71.78% # The component providing the target for taken branches (Count)
system.cpu0.branchPred.targetProvider_0::BTB     16318359     14.90%     86.68% # The component providing the target for taken branches (Count)
system.cpu0.branchPred.targetProvider_0::RAS      6230078      5.69%     92.37% # The component providing the target for taken branches (Count)
system.cpu0.branchPred.targetProvider_0::Indirect      8363041      7.63%    100.00% # The component providing the target for taken branches (Count)
system.cpu0.branchPred.targetProvider_0::total    109550169                       # The component providing the target for taken branches (Count)
system.cpu0.branchPred.targetWrong_0::NoBranch      1542376     55.68%     55.68% # Number of branches where the target was incorrect or not available at prediction time. (Count)
system.cpu0.branchPred.targetWrong_0::Return       375389     13.55%     69.23% # Number of branches where the target was incorrect or not available at prediction time. (Count)
system.cpu0.branchPred.targetWrong_0::CallDirect        12326      0.44%     69.67% # Number of branches where the target was incorrect or not available at prediction time. (Count)
system.cpu0.branchPred.targetWrong_0::CallIndirect       840082     30.33%    100.00% # Number of branches where the target was incorrect or not available at prediction time. (Count)
system.cpu0.branchPred.targetWrong_0::DirectCond            0      0.00%    100.00% # Number of branches where the target was incorrect or not available at prediction time. (Count)
system.cpu0.branchPred.targetWrong_0::DirectUncond            0      0.00%    100.00% # Number of branches where the target was incorrect or not available at prediction time. (Count)
system.cpu0.branchPred.targetWrong_0::IndirectCond            0      0.00%    100.00% # Number of branches where the target was incorrect or not available at prediction time. (Count)
system.cpu0.branchPred.targetWrong_0::IndirectUncond            0      0.00%    100.00% # Number of branches where the target was incorrect or not available at prediction time. (Count)
system.cpu0.branchPred.targetWrong_0::total      2770173                       # Number of branches where the target was incorrect or not available at prediction time. (Count)
system.cpu0.branchPred.condPredicted         88040439                       # Number of conditional branches predicted (Count)
system.cpu0.branchPred.condPredictedTaken     11387591                       # Number of conditional branches predicted as taken (Count)
system.cpu0.branchPred.condIncorrect          2777955                       # Number of conditional branches incorrect (Count)
system.cpu0.branchPred.predTakenBTBMiss        368389                       # Number of branches predicted taken but missed in BTB (Count)
system.cpu0.branchPred.NotTakenMispredicted      2422434                       # Number branches predicted 'not taken' but turned out to be taken (Count)
system.cpu0.branchPred.TakenMispredicted       355521                       # Number branches predicted taken but are actually not taken (Count)
system.cpu0.branchPred.BTBLookups           109550169                       # Number of BTB lookups (Count)
system.cpu0.branchPred.BTBUpdates             1123518                       # Number of BTB updates (Count)
system.cpu0.branchPred.BTBHits               41532353                       # Number of BTB hits (Count)
system.cpu0.branchPred.BTBHitRatio           0.379117                       # BTB Hit Ratio (Ratio)
system.cpu0.branchPred.BTBMispredicted         441170                       # Number BTB mispredictions. No target found or target wrong (Count)
system.cpu0.branchPred.indirectLookups        9548119                       # Number of indirect predictor lookups. (Count)
system.cpu0.branchPred.indirectHits           8363041                       # Number of indirect target hits. (Count)
system.cpu0.branchPred.indirectMisses         1185078                       # Number of indirect misses. (Count)
system.cpu0.branchPred.indirectMispredicted            0                       # Number of mispredicted indirect branches. (Count)
system.cpu0.branchPred.btb.lookups::NoBranch         8935      0.01%      0.01% # Number of BTB lookups (Count)
system.cpu0.branchPred.btb.lookups::Return      6230078      5.69%      5.70% # Number of BTB lookups (Count)
system.cpu0.branchPred.btb.lookups::CallDirect      3350421      3.06%      8.75% # Number of BTB lookups (Count)
system.cpu0.branchPred.btb.lookups::CallIndirect      3251831      2.97%     11.72% # Number of BTB lookups (Count)
system.cpu0.branchPred.btb.lookups::DirectCond     88031585     80.36%     92.08% # Number of BTB lookups (Count)
system.cpu0.branchPred.btb.lookups::DirectUncond      2381030      2.17%     94.25% # Number of BTB lookups (Count)
system.cpu0.branchPred.btb.lookups::IndirectCond            0      0.00%     94.25% # Number of BTB lookups (Count)
system.cpu0.branchPred.btb.lookups::IndirectUncond      6296289      5.75%    100.00% # Number of BTB lookups (Count)
system.cpu0.branchPred.btb.lookups::total    109550169                       # Number of BTB lookups (Count)
system.cpu0.branchPred.btb.misses::NoBranch         1523      0.00%      0.00% # Number of BTB misses (Count)
system.cpu0.branchPred.btb.misses::Return      6228614      9.16%      9.16% # Number of BTB misses (Count)
system.cpu0.branchPred.btb.misses::CallDirect       107472      0.16%      9.32% # Number of BTB misses (Count)
system.cpu0.branchPred.btb.misses::CallIndirect      3220233      4.73%     14.05% # Number of BTB misses (Count)
system.cpu0.branchPred.btb.misses::DirectCond     52061472     76.54%     90.59% # Number of BTB misses (Count)
system.cpu0.branchPred.btb.misses::DirectUncond       102395      0.15%     90.74% # Number of BTB misses (Count)
system.cpu0.branchPred.btb.misses::IndirectCond            0      0.00%     90.74% # Number of BTB misses (Count)
system.cpu0.branchPred.btb.misses::IndirectUncond      6296107      9.26%    100.00% # Number of BTB misses (Count)
system.cpu0.branchPred.btb.misses::total     68017816                       # Number of BTB misses (Count)
system.cpu0.branchPred.btb.updates::NoBranch            0      0.00%      0.00% # Number of BTB updates (Count)
system.cpu0.branchPred.btb.updates::Return            0      0.00%      0.00% # Number of BTB updates (Count)
system.cpu0.branchPred.btb.updates::CallDirect        94756      8.43%      8.43% # Number of BTB updates (Count)
system.cpu0.branchPred.btb.updates::CallIndirect            0      0.00%      8.43% # Number of BTB updates (Count)
system.cpu0.branchPred.btb.updates::DirectCond       944660     84.08%     92.51% # Number of BTB updates (Count)
system.cpu0.branchPred.btb.updates::DirectUncond        84102      7.49%    100.00% # Number of BTB updates (Count)
system.cpu0.branchPred.btb.updates::IndirectCond            0      0.00%    100.00% # Number of BTB updates (Count)
system.cpu0.branchPred.btb.updates::IndirectUncond            0      0.00%    100.00% # Number of BTB updates (Count)
system.cpu0.branchPred.btb.updates::total      1123518                       # Number of BTB updates (Count)
system.cpu0.branchPred.btb.mispredict::NoBranch            0      0.00%      0.00% # Number of BTB mispredictions. No target found or target wrong. (Count)
system.cpu0.branchPred.btb.mispredict::Return            0      0.00%      0.00% # Number of BTB mispredictions. No target found or target wrong. (Count)
system.cpu0.branchPred.btb.mispredict::CallDirect        94756      8.43%      8.43% # Number of BTB mispredictions. No target found or target wrong. (Count)
system.cpu0.branchPred.btb.mispredict::CallIndirect            0      0.00%      8.43% # Number of BTB mispredictions. No target found or target wrong. (Count)
system.cpu0.branchPred.btb.mispredict::DirectCond       944660     84.08%     92.51% # Number of BTB mispredictions. No target found or target wrong. (Count)
system.cpu0.branchPred.btb.mispredict::DirectUncond        84102      7.49%    100.00% # Number of BTB mispredictions. No target found or target wrong. (Count)
system.cpu0.branchPred.btb.mispredict::IndirectCond            0      0.00%    100.00% # Number of BTB mispredictions. No target found or target wrong. (Count)
system.cpu0.branchPred.btb.mispredict::IndirectUncond            0      0.00%    100.00% # Number of BTB mispredictions. No target found or target wrong. (Count)
system.cpu0.branchPred.btb.mispredict::total      1123518                       # Number of BTB mispredictions. No target found or target wrong. (Count)
system.cpu0.branchPred.btb.power_state.pwrStateResidencyTicks::UNDEFINED 312944560000                       # Cumulative time (in ticks) in various power states (Tick)
system.cpu0.branchPred.indirectBranchPred.lookups      9548119                       # Number of lookups (Count)
system.cpu0.branchPred.indirectBranchPred.hits      8363041                       # Number of hits of a tag (Count)
system.cpu0.branchPred.indirectBranchPred.misses      1185078                       # Number of misses (Count)
system.cpu0.branchPred.indirectBranchPred.targetRecords      1284724                       # Number of targets that where recorded/installed in the cache (Count)
system.cpu0.branchPred.indirectBranchPred.indirectRecords     10832844                       # Number of indirect branches/calls recorded in the indirect hist (Count)
system.cpu0.branchPred.indirectBranchPred.speculativeOverflows            1                       # Number of times more than the allowed capacity for speculative branches/calls where in flight and destroy the path history (Count)
system.cpu0.branchPred.ras.pushes             7143374                       # Number of times a PC was pushed onto the RAS (Count)
system.cpu0.branchPred.ras.pops               7143369                       # Number of times a PC was poped from the RAS (Count)
system.cpu0.branchPred.ras.squashes           1454413                       # Number of times the stack operation was squashed due to wrong speculation. (Count)
system.cpu0.branchPred.ras.used               5688956                       # Number of times the RAS is the provider (Count)
system.cpu0.branchPred.ras.correct            5685195                       # Number of times the RAS is the provider and the prediction is correct (Count)
system.cpu0.branchPred.ras.incorrect             3761                       # Number of times the RAS is the provider and the prediction is wrong (Count)
system.cpu0.commit.commitSquashedInsts       85798640                       # The number of squashed insts skipped by commit (Count)
system.cpu0.commit.commitNonSpecStalls          37089                       # The number of times commit has been forced to stall to communicate backwards (Count)
system.cpu0.commit.branchMispredicts          2611328                       # The number of times a branch was mispredicted (Count)
system.cpu0.commit.numCommittedDist::samples    575855538                       # Number of insts commited each cycle (Count)
system.cpu0.commit.numCommittedDist::mean     1.591510                       # Number of insts commited each cycle (Count)
system.cpu0.commit.numCommittedDist::stdev     2.619283                       # Number of insts commited each cycle (Count)
system.cpu0.commit.numCommittedDist::underflows            0      0.00%      0.00% # Number of insts commited each cycle (Count)
system.cpu0.commit.numCommittedDist::0      353003876     61.30%     61.30% # Number of insts commited each cycle (Count)
system.cpu0.commit.numCommittedDist::1       50830010      8.83%     70.13% # Number of insts commited each cycle (Count)
system.cpu0.commit.numCommittedDist::2       28642286      4.97%     75.10% # Number of insts commited each cycle (Count)
system.cpu0.commit.numCommittedDist::3       45156203      7.84%     82.94% # Number of insts commited each cycle (Count)
system.cpu0.commit.numCommittedDist::4       13129333      2.28%     85.22% # Number of insts commited each cycle (Count)
system.cpu0.commit.numCommittedDist::5       11516076      2.00%     87.22% # Number of insts commited each cycle (Count)
system.cpu0.commit.numCommittedDist::6        8958608      1.56%     88.78% # Number of insts commited each cycle (Count)
system.cpu0.commit.numCommittedDist::7        7905610      1.37%     90.15% # Number of insts commited each cycle (Count)
system.cpu0.commit.numCommittedDist::8       56713536      9.85%    100.00% # Number of insts commited each cycle (Count)
system.cpu0.commit.numCommittedDist::overflows            0      0.00%    100.00% # Number of insts commited each cycle (Count)
system.cpu0.commit.numCommittedDist::min_value            0                       # Number of insts commited each cycle (Count)
system.cpu0.commit.numCommittedDist::max_value            8                       # Number of insts commited each cycle (Count)
system.cpu0.commit.numCommittedDist::total    575855538                       # Number of insts commited each cycle (Count)
system.cpu0.commit.amos                             0                       # Number of atomic instructions committed (Count)
system.cpu0.commit.membars                       9774                       # Number of memory barriers committed (Count)
system.cpu0.commit.functionCalls              5688961                       # Number of function calls committed. (Count)
system.cpu0.commit.committedInstType_0::No_OpClass     10987452      1.20%      1.20% # Class of committed instruction (Count)
system.cpu0.commit.committedInstType_0::IntAlu    668138866     72.90%     74.10% # Class of committed instruction (Count)
system.cpu0.commit.committedInstType_0::IntMult       316040      0.03%     74.14% # Class of committed instruction (Count)
system.cpu0.commit.committedInstType_0::IntDiv       492429      0.05%     74.19% # Class of committed instruction (Count)
system.cpu0.commit.committedInstType_0::FloatAdd      1562010      0.17%     74.36% # Class of committed instruction (Count)
system.cpu0.commit.committedInstType_0::FloatCmp            0      0.00%     74.36% # Class of committed instruction (Count)
system.cpu0.commit.committedInstType_0::FloatCvt           64      0.00%     74.36% # Class of committed instruction (Count)
system.cpu0.commit.committedInstType_0::FloatMult            0      0.00%     74.36% # Class of committed instruction (Count)
system.cpu0.commit.committedInstType_0::FloatMultAcc            0      0.00%     74.36% # Class of committed instruction (Count)
system.cpu0.commit.committedInstType_0::FloatDiv            0      0.00%     74.36% # Class of committed instruction (Count)
system.cpu0.commit.committedInstType_0::FloatMisc            0      0.00%     74.36% # Class of committed instruction (Count)
system.cpu0.commit.committedInstType_0::FloatSqrt            0      0.00%     74.36% # Class of committed instruction (Count)
system.cpu0.commit.committedInstType_0::SimdAdd        17860      0.00%     74.36% # Class of committed instruction (Count)
system.cpu0.commit.committedInstType_0::SimdAddAcc            0      0.00%     74.36% # Class of committed instruction (Count)
system.cpu0.commit.committedInstType_0::SimdAlu      1307005      0.14%     74.50% # Class of committed instruction (Count)
system.cpu0.commit.committedInstType_0::SimdCmp         8072      0.00%     74.51% # Class of committed instruction (Count)
system.cpu0.commit.committedInstType_0::SimdCvt       139624      0.02%     74.52% # Class of committed instruction (Count)
system.cpu0.commit.committedInstType_0::SimdMisc      1624780      0.18%     74.70% # Class of committed instruction (Count)
system.cpu0.commit.committedInstType_0::SimdMult            0      0.00%     74.70% # Class of committed instruction (Count)
system.cpu0.commit.committedInstType_0::SimdMultAcc            0      0.00%     74.70% # Class of committed instruction (Count)
system.cpu0.commit.committedInstType_0::SimdMatMultAcc            0      0.00%     74.70% # Class of committed instruction (Count)
system.cpu0.commit.committedInstType_0::SimdShift         5990      0.00%     74.70% # Class of committed instruction (Count)
system.cpu0.commit.committedInstType_0::SimdShiftAcc            0      0.00%     74.70% # Class of committed instruction (Count)
system.cpu0.commit.committedInstType_0::SimdDiv            0      0.00%     74.70% # Class of committed instruction (Count)
system.cpu0.commit.committedInstType_0::SimdSqrt            0      0.00%     74.70% # Class of committed instruction (Count)
system.cpu0.commit.committedInstType_0::SimdFloatAdd       560451      0.06%     74.76% # Class of committed instruction (Count)
system.cpu0.commit.committedInstType_0::SimdFloatAlu            0      0.00%     74.76% # Class of committed instruction (Count)
system.cpu0.commit.committedInstType_0::SimdFloatCmp            1      0.00%     74.76% # Class of committed instruction (Count)
system.cpu0.commit.committedInstType_0::SimdFloatCvt       640110      0.07%     74.83% # Class of committed instruction (Count)
system.cpu0.commit.committedInstType_0::SimdFloatDiv        66933      0.01%     74.84% # Class of committed instruction (Count)
system.cpu0.commit.committedInstType_0::SimdFloatMisc            0      0.00%     74.84% # Class of committed instruction (Count)
system.cpu0.commit.committedInstType_0::SimdFloatMult       495798      0.05%     74.89% # Class of committed instruction (Count)
system.cpu0.commit.committedInstType_0::SimdFloatMultAcc            0      0.00%     74.89% # Class of committed instruction (Count)
system.cpu0.commit.committedInstType_0::SimdFloatMatMultAcc            0      0.00%     74.89% # Class of committed instruction (Count)
system.cpu0.commit.committedInstType_0::SimdFloatSqrt        10549      0.00%     74.89% # Class of committed instruction (Count)
system.cpu0.commit.committedInstType_0::SimdReduceAdd            0      0.00%     74.89% # Class of committed instruction (Count)
system.cpu0.commit.committedInstType_0::SimdReduceAlu            0      0.00%     74.89% # Class of committed instruction (Count)
system.cpu0.commit.committedInstType_0::SimdReduceCmp            0      0.00%     74.89% # Class of committed instruction (Count)
system.cpu0.commit.committedInstType_0::SimdFloatReduceAdd            0      0.00%     74.89% # Class of committed instruction (Count)
system.cpu0.commit.committedInstType_0::SimdFloatReduceCmp            0      0.00%     74.89% # Class of committed instruction (Count)
system.cpu0.commit.committedInstType_0::SimdAes            0      0.00%     74.89% # Class of committed instruction (Count)
system.cpu0.commit.committedInstType_0::SimdAesMix            0      0.00%     74.89% # Class of committed instruction (Count)
system.cpu0.commit.committedInstType_0::SimdSha1Hash            0      0.00%     74.89% # Class of committed instruction (Count)
system.cpu0.commit.committedInstType_0::SimdSha1Hash2            0      0.00%     74.89% # Class of committed instruction (Count)
system.cpu0.commit.committedInstType_0::SimdSha256Hash            0      0.00%     74.89% # Class of committed instruction (Count)
system.cpu0.commit.committedInstType_0::SimdSha256Hash2            0      0.00%     74.89% # Class of committed instruction (Count)
system.cpu0.commit.committedInstType_0::SimdShaSigma2            0      0.00%     74.89% # Class of committed instruction (Count)
system.cpu0.commit.committedInstType_0::SimdShaSigma3            0      0.00%     74.89% # Class of committed instruction (Count)
system.cpu0.commit.committedInstType_0::SimdPredAlu            0      0.00%     74.89% # Class of committed instruction (Count)
system.cpu0.commit.committedInstType_0::Matrix            0      0.00%     74.89% # Class of committed instruction (Count)
system.cpu0.commit.committedInstType_0::MatrixMov            0      0.00%     74.89% # Class of committed instruction (Count)
system.cpu0.commit.committedInstType_0::MatrixOP            0      0.00%     74.89% # Class of committed instruction (Count)
system.cpu0.commit.committedInstType_0::MemRead    149556994     16.32%     91.21% # Class of committed instruction (Count)
system.cpu0.commit.committedInstType_0::MemWrite     76529881      8.35%     99.56% # Class of committed instruction (Count)
system.cpu0.commit.committedInstType_0::FloatMemRead      1802247      0.20%     99.76% # Class of committed instruction (Count)
system.cpu0.commit.committedInstType_0::FloatMemWrite      2216953      0.24%    100.00% # Class of committed instruction (Count)
system.cpu0.commit.committedInstType_0::IprAccess            0      0.00%    100.00% # Class of committed instruction (Count)
system.cpu0.commit.committedInstType_0::InstPrefetch            0      0.00%    100.00% # Class of committed instruction (Count)
system.cpu0.commit.committedInstType_0::VectorUnitStrideLoad            0      0.00%    100.00% # Class of committed instruction (Count)
system.cpu0.commit.committedInstType_0::VectorUnitStrideStore            0      0.00%    100.00% # Class of committed instruction (Count)
system.cpu0.commit.committedInstType_0::VectorUnitStrideMaskLoad            0      0.00%    100.00% # Class of committed instruction (Count)
system.cpu0.commit.committedInstType_0::VectorUnitStrideMaskStore            0      0.00%    100.00% # Class of committed instruction (Count)
system.cpu0.commit.committedInstType_0::VectorStridedLoad            0      0.00%    100.00% # Class of committed instruction (Count)
system.cpu0.commit.committedInstType_0::VectorStridedStore            0      0.00%    100.00% # Class of committed instruction (Count)
system.cpu0.commit.committedInstType_0::VectorIndexedLoad            0      0.00%    100.00% # Class of committed instruction (Count)
system.cpu0.commit.committedInstType_0::VectorIndexedStore            0      0.00%    100.00% # Class of committed instruction (Count)
system.cpu0.commit.committedInstType_0::VectorUnitStrideFaultOnlyFirstLoad            0      0.00%    100.00% # Class of committed instruction (Count)
system.cpu0.commit.committedInstType_0::VectorWholeRegisterLoad            0      0.00%    100.00% # Class of committed instruction (Count)
system.cpu0.commit.committedInstType_0::VectorWholeRegisterStore            0      0.00%    100.00% # Class of committed instruction (Count)
system.cpu0.commit.committedInstType_0::VectorIntegerArith            0      0.00%    100.00% # Class of committed instruction (Count)
system.cpu0.commit.committedInstType_0::VectorFloatArith            0      0.00%    100.00% # Class of committed instruction (Count)
system.cpu0.commit.committedInstType_0::VectorFloatConvert            0      0.00%    100.00% # Class of committed instruction (Count)
system.cpu0.commit.committedInstType_0::VectorIntegerReduce            0      0.00%    100.00% # Class of committed instruction (Count)
system.cpu0.commit.committedInstType_0::VectorFloatReduce            0      0.00%    100.00% # Class of committed instruction (Count)
system.cpu0.commit.committedInstType_0::VectorMisc            0      0.00%    100.00% # Class of committed instruction (Count)
system.cpu0.commit.committedInstType_0::VectorIntegerExtension            0      0.00%    100.00% # Class of committed instruction (Count)
system.cpu0.commit.committedInstType_0::VectorConfig            0      0.00%    100.00% # Class of committed instruction (Count)
system.cpu0.commit.committedInstType_0::total    916480109                       # Class of committed instruction (Count)
system.cpu0.commit.commitEligibleSamples     56713536                       # number cycles where commit BW limit reached (Cycle)
system.cpu0.commitStats0.numInsts           508589436                       # Number of instructions committed (thread level) (Count)
system.cpu0.commitStats0.numOps             916480109                       # Number of ops (including micro ops) committed (thread level) (Count)
system.cpu0.commitStats0.numInstsNotNOP     508589436                       # Number of instructions committed excluding NOPs or prefetches (Count)
system.cpu0.commitStats0.numOpsNotNOP       916480109                       # Number of Ops (including micro ops) Simulated (Count)
system.cpu0.commitStats0.cpi                 1.230637                       # CPI: cycles per instruction (thread level) ((Cycle/Count))
system.cpu0.commitStats0.ipc                 0.812587                       # IPC: instructions per cycle (thread level) ((Count/Cycle))
system.cpu0.commitStats0.numMemRefs         230106075                       # Number of memory references committed (Count)
system.cpu0.commitStats0.numFpInsts          11191528                       # Number of float instructions (Count)
system.cpu0.commitStats0.numIntInsts        899278861                       # Number of integer instructions (Count)
system.cpu0.commitStats0.numLoadInsts       151359241                       # Number of load instructions (Count)
system.cpu0.commitStats0.numStoreInsts       78746834                       # Number of store instructions (Count)
system.cpu0.commitStats0.numVecInsts                0                       # Number of vector instructions (Count)
system.cpu0.commitStats0.committedInstType::No_OpClass     10987452      1.20%      1.20% # Class of committed instruction. (Count)
system.cpu0.commitStats0.committedInstType::IntAlu    668138866     72.90%     74.10% # Class of committed instruction. (Count)
system.cpu0.commitStats0.committedInstType::IntMult       316040      0.03%     74.14% # Class of committed instruction. (Count)
system.cpu0.commitStats0.committedInstType::IntDiv       492429      0.05%     74.19% # Class of committed instruction. (Count)
system.cpu0.commitStats0.committedInstType::FloatAdd      1562010      0.17%     74.36% # Class of committed instruction. (Count)
system.cpu0.commitStats0.committedInstType::FloatCmp            0      0.00%     74.36% # Class of committed instruction. (Count)
system.cpu0.commitStats0.committedInstType::FloatCvt           64      0.00%     74.36% # Class of committed instruction. (Count)
system.cpu0.commitStats0.committedInstType::FloatMult            0      0.00%     74.36% # Class of committed instruction. (Count)
system.cpu0.commitStats0.committedInstType::FloatMultAcc            0      0.00%     74.36% # Class of committed instruction. (Count)
system.cpu0.commitStats0.committedInstType::FloatDiv            0      0.00%     74.36% # Class of committed instruction. (Count)
system.cpu0.commitStats0.committedInstType::FloatMisc            0      0.00%     74.36% # Class of committed instruction. (Count)
system.cpu0.commitStats0.committedInstType::FloatSqrt            0      0.00%     74.36% # Class of committed instruction. (Count)
system.cpu0.commitStats0.committedInstType::SimdAdd        17860      0.00%     74.36% # Class of committed instruction. (Count)
system.cpu0.commitStats0.committedInstType::SimdAddAcc            0      0.00%     74.36% # Class of committed instruction. (Count)
system.cpu0.commitStats0.committedInstType::SimdAlu      1307005      0.14%     74.50% # Class of committed instruction. (Count)
system.cpu0.commitStats0.committedInstType::SimdCmp         8072      0.00%     74.51% # Class of committed instruction. (Count)
system.cpu0.commitStats0.committedInstType::SimdCvt       139624      0.02%     74.52% # Class of committed instruction. (Count)
system.cpu0.commitStats0.committedInstType::SimdMisc      1624780      0.18%     74.70% # Class of committed instruction. (Count)
system.cpu0.commitStats0.committedInstType::SimdMult            0      0.00%     74.70% # Class of committed instruction. (Count)
system.cpu0.commitStats0.committedInstType::SimdMultAcc            0      0.00%     74.70% # Class of committed instruction. (Count)
system.cpu0.commitStats0.committedInstType::SimdMatMultAcc            0      0.00%     74.70% # Class of committed instruction. (Count)
system.cpu0.commitStats0.committedInstType::SimdShift         5990      0.00%     74.70% # Class of committed instruction. (Count)
system.cpu0.commitStats0.committedInstType::SimdShiftAcc            0      0.00%     74.70% # Class of committed instruction. (Count)
system.cpu0.commitStats0.committedInstType::SimdDiv            0      0.00%     74.70% # Class of committed instruction. (Count)
system.cpu0.commitStats0.committedInstType::SimdSqrt            0      0.00%     74.70% # Class of committed instruction. (Count)
system.cpu0.commitStats0.committedInstType::SimdFloatAdd       560451      0.06%     74.76% # Class of committed instruction. (Count)
system.cpu0.commitStats0.committedInstType::SimdFloatAlu            0      0.00%     74.76% # Class of committed instruction. (Count)
system.cpu0.commitStats0.committedInstType::SimdFloatCmp            1      0.00%     74.76% # Class of committed instruction. (Count)
system.cpu0.commitStats0.committedInstType::SimdFloatCvt       640110      0.07%     74.83% # Class of committed instruction. (Count)
system.cpu0.commitStats0.committedInstType::SimdFloatDiv        66933      0.01%     74.84% # Class of committed instruction. (Count)
system.cpu0.commitStats0.committedInstType::SimdFloatMisc            0      0.00%     74.84% # Class of committed instruction. (Count)
system.cpu0.commitStats0.committedInstType::SimdFloatMult       495798      0.05%     74.89% # Class of committed instruction. (Count)
system.cpu0.commitStats0.committedInstType::SimdFloatMultAcc            0      0.00%     74.89% # Class of committed instruction. (Count)
system.cpu0.commitStats0.committedInstType::SimdFloatMatMultAcc            0      0.00%     74.89% # Class of committed instruction. (Count)
system.cpu0.commitStats0.committedInstType::SimdFloatSqrt        10549      0.00%     74.89% # Class of committed instruction. (Count)
system.cpu0.commitStats0.committedInstType::SimdReduceAdd            0      0.00%     74.89% # Class of committed instruction. (Count)
system.cpu0.commitStats0.committedInstType::SimdReduceAlu            0      0.00%     74.89% # Class of committed instruction. (Count)
system.cpu0.commitStats0.committedInstType::SimdReduceCmp            0      0.00%     74.89% # Class of committed instruction. (Count)
system.cpu0.commitStats0.committedInstType::SimdFloatReduceAdd            0      0.00%     74.89% # Class of committed instruction. (Count)
system.cpu0.commitStats0.committedInstType::SimdFloatReduceCmp            0      0.00%     74.89% # Class of committed instruction. (Count)
system.cpu0.commitStats0.committedInstType::SimdAes            0      0.00%     74.89% # Class of committed instruction. (Count)
system.cpu0.commitStats0.committedInstType::SimdAesMix            0      0.00%     74.89% # Class of committed instruction. (Count)
system.cpu0.commitStats0.committedInstType::SimdSha1Hash            0      0.00%     74.89% # Class of committed instruction. (Count)
system.cpu0.commitStats0.committedInstType::SimdSha1Hash2            0      0.00%     74.89% # Class of committed instruction. (Count)
system.cpu0.commitStats0.committedInstType::SimdSha256Hash            0      0.00%     74.89% # Class of committed instruction. (Count)
system.cpu0.commitStats0.committedInstType::SimdSha256Hash2            0      0.00%     74.89% # Class of committed instruction. (Count)
system.cpu0.commitStats0.committedInstType::SimdShaSigma2            0      0.00%     74.89% # Class of committed instruction. (Count)
system.cpu0.commitStats0.committedInstType::SimdShaSigma3            0      0.00%     74.89% # Class of committed instruction. (Count)
system.cpu0.commitStats0.committedInstType::SimdPredAlu            0      0.00%     74.89% # Class of committed instruction. (Count)
system.cpu0.commitStats0.committedInstType::Matrix            0      0.00%     74.89% # Class of committed instruction. (Count)
system.cpu0.commitStats0.committedInstType::MatrixMov            0      0.00%     74.89% # Class of committed instruction. (Count)
system.cpu0.commitStats0.committedInstType::MatrixOP            0      0.00%     74.89% # Class of committed instruction. (Count)
system.cpu0.commitStats0.committedInstType::MemRead    149556994     16.32%     91.21% # Class of committed instruction. (Count)
system.cpu0.commitStats0.committedInstType::MemWrite     76529881      8.35%     99.56% # Class of committed instruction. (Count)
system.cpu0.commitStats0.committedInstType::FloatMemRead      1802247      0.20%     99.76% # Class of committed instruction. (Count)
system.cpu0.commitStats0.committedInstType::FloatMemWrite      2216953      0.24%    100.00% # Class of committed instruction. (Count)
system.cpu0.commitStats0.committedInstType::IprAccess            0      0.00%    100.00% # Class of committed instruction. (Count)
system.cpu0.commitStats0.committedInstType::InstPrefetch            0      0.00%    100.00% # Class of committed instruction. (Count)
system.cpu0.commitStats0.committedInstType::VectorUnitStrideLoad            0      0.00%    100.00% # Class of committed instruction. (Count)
system.cpu0.commitStats0.committedInstType::VectorUnitStrideStore            0      0.00%    100.00% # Class of committed instruction. (Count)
system.cpu0.commitStats0.committedInstType::VectorUnitStrideMaskLoad            0      0.00%    100.00% # Class of committed instruction. (Count)
system.cpu0.commitStats0.committedInstType::VectorUnitStrideMaskStore            0      0.00%    100.00% # Class of committed instruction. (Count)
system.cpu0.commitStats0.committedInstType::VectorStridedLoad            0      0.00%    100.00% # Class of committed instruction. (Count)
system.cpu0.commitStats0.committedInstType::VectorStridedStore            0      0.00%    100.00% # Class of committed instruction. (Count)
system.cpu0.commitStats0.committedInstType::VectorIndexedLoad            0      0.00%    100.00% # Class of committed instruction. (Count)
system.cpu0.commitStats0.committedInstType::VectorIndexedStore            0      0.00%    100.00% # Class of committed instruction. (Count)
system.cpu0.commitStats0.committedInstType::VectorUnitStrideFaultOnlyFirstLoad            0      0.00%    100.00% # Class of committed instruction. (Count)
system.cpu0.commitStats0.committedInstType::VectorWholeRegisterLoad            0      0.00%    100.00% # Class of committed instruction. (Count)
system.cpu0.commitStats0.committedInstType::VectorWholeRegisterStore            0      0.00%    100.00% # Class of committed instruction. (Count)
system.cpu0.commitStats0.committedInstType::VectorIntegerArith            0      0.00%    100.00% # Class of committed instruction. (Count)
system.cpu0.commitStats0.committedInstType::VectorFloatArith            0      0.00%    100.00% # Class of committed instruction. (Count)
system.cpu0.commitStats0.committedInstType::VectorFloatConvert            0      0.00%    100.00% # Class of committed instruction. (Count)
system.cpu0.commitStats0.committedInstType::VectorIntegerReduce            0      0.00%    100.00% # Class of committed instruction. (Count)
system.cpu0.commitStats0.committedInstType::VectorFloatReduce            0      0.00%    100.00% # Class of committed instruction. (Count)
system.cpu0.commitStats0.committedInstType::VectorMisc            0      0.00%    100.00% # Class of committed instruction. (Count)
system.cpu0.commitStats0.committedInstType::VectorIntegerExtension            0      0.00%    100.00% # Class of committed instruction. (Count)
system.cpu0.commitStats0.committedInstType::VectorConfig            0      0.00%    100.00% # Class of committed instruction. (Count)
system.cpu0.commitStats0.committedInstType::total    916480109                       # Class of committed instruction. (Count)
system.cpu0.commitStats0.committedControl::IsControl     96490423                       # Class of control type instructions committed (Count)
system.cpu0.commitStats0.committedControl::IsDirectControl     82619574                       # Class of control type instructions committed (Count)
system.cpu0.commitStats0.committedControl::IsIndirectControl     13870076                       # Class of control type instructions committed (Count)
system.cpu0.commitStats0.committedControl::IsCondControl     77714671                       # Class of control type instructions committed (Count)
system.cpu0.commitStats0.committedControl::IsUncondControl     18774979                       # Class of control type instructions committed (Count)
system.cpu0.commitStats0.committedControl::IsCall      5688961                       # Class of control type instructions committed (Count)
system.cpu0.commitStats0.committedControl::IsReturn      5688956                       # Class of control type instructions committed (Count)
system.cpu0.dcache.demandHits::cpu0.data    222692286                       # number of demand (read+write) hits (Count)
system.cpu0.dcache.demandHits::total        222692286                       # number of demand (read+write) hits (Count)
system.cpu0.dcache.overallHits::cpu0.data    222692681                       # number of overall hits (Count)
system.cpu0.dcache.overallHits::total       222692681                       # number of overall hits (Count)
system.cpu0.dcache.demandMisses::cpu0.data      2935965                       # number of demand (read+write) misses (Count)
system.cpu0.dcache.demandMisses::total        2935965                       # number of demand (read+write) misses (Count)
system.cpu0.dcache.overallMisses::cpu0.data      2937208                       # number of overall misses (Count)
system.cpu0.dcache.overallMisses::total       2937208                       # number of overall misses (Count)
system.cpu0.dcache.demandMissLatency::cpu0.data 115924977367                       # number of demand (read+write) miss ticks (Tick)
system.cpu0.dcache.demandMissLatency::total 115924977367                       # number of demand (read+write) miss ticks (Tick)
system.cpu0.dcache.overallMissLatency::cpu0.data 115924977367                       # number of overall miss ticks (Tick)
system.cpu0.dcache.overallMissLatency::total 115924977367                       # number of overall miss ticks (Tick)
system.cpu0.dcache.demandAccesses::cpu0.data    225628251                       # number of demand (read+write) accesses (Count)
system.cpu0.dcache.demandAccesses::total    225628251                       # number of demand (read+write) accesses (Count)
system.cpu0.dcache.overallAccesses::cpu0.data    225629889                       # number of overall (read+write) accesses (Count)
system.cpu0.dcache.overallAccesses::total    225629889                       # number of overall (read+write) accesses (Count)
system.cpu0.dcache.demandMissRate::cpu0.data     0.013012                       # miss rate for demand accesses (Ratio)
[...]
system.mem_ctrl.dram.numReads::cpu0.inst       221527                       # Number of read requests responded to by this memory (Count)
system.mem_ctrl.dram.numReads::cpu0.data       687994                       # Number of read requests responded to by this memory (Count)
system.mem_ctrl.dram.numReads::total           909521                       # Number of read requests responded to by this memory (Count)
system.mem_ctrl.dram.numWrites::writebacks       267345                       # Number of write requests responded to by this memory (Count)
system.mem_ctrl.dram.numWrites::total          267345                       # Number of write requests responded to by this memory (Count)
system.mem_ctrl.dram.bwRead::cpu0.inst       45304280                       # Total read bandwidth from this memory ((Byte/Second))
system.mem_ctrl.dram.bwRead::cpu0.data      140701011                       # Total read bandwidth from this memory ((Byte/Second))
system.mem_ctrl.dram.bwRead::total          186005291                       # Total read bandwidth from this memory ((Byte/Second))
system.mem_ctrl.dram.bwInstRead::cpu0.inst     45304280                       # Instruction read bandwidth from this memory ((Byte/Second))
system.mem_ctrl.dram.bwInstRead::total       45304280                       # Instruction read bandwidth from this memory ((Byte/Second))
system.mem_ctrl.dram.bwWrite::writebacks     54674477                       # Write bandwidth from this memory ((Byte/Second))
system.mem_ctrl.dram.bwWrite::total          54674477                       # Write bandwidth from this memory ((Byte/Second))
system.mem_ctrl.dram.bwTotal::writebacks     54674477                       # Total bandwidth to/from this memory ((Byte/Second))
system.mem_ctrl.dram.bwTotal::cpu0.inst      45304280                       # Total bandwidth to/from this memory ((Byte/Second))
system.mem_ctrl.dram.bwTotal::cpu0.data     140701011                       # Total bandwidth to/from this memory ((Byte/Second))
system.mem_ctrl.dram.bwTotal::total         240679768                       # Total bandwidth to/from this memory ((Byte/Second))
system.mem_ctrl.dram.readBursts                905500                       # Number of DRAM read bursts (Count)
system.mem_ctrl.dram.writeBursts               267050                       # Number of DRAM write bursts (Count)
system.mem_ctrl.dram.perBankRdBursts::0         64592                       # Per bank write bursts (Count)
system.mem_ctrl.dram.perBankRdBursts::1         65801                       # Per bank write bursts (Count)
system.mem_ctrl.dram.perBankRdBursts::2         46644                       # Per bank write bursts (Count)
system.mem_ctrl.dram.perBankRdBursts::3         53204                       # Per bank write bursts (Count)
system.mem_ctrl.dram.perBankRdBursts::4         61567                       # Per bank write bursts (Count)
system.mem_ctrl.dram.perBankRdBursts::5         45602                       # Per bank write bursts (Count)
system.mem_ctrl.dram.perBankRdBursts::6         51813                       # Per bank write bursts (Count)
system.mem_ctrl.dram.perBankRdBursts::7         65931                       # Per bank write bursts (Count)
system.mem_ctrl.dram.perBankRdBursts::8         69378                       # Per bank write bursts (Count)
system.mem_ctrl.dram.perBankRdBursts::9         51725                       # Per bank write bursts (Count)
system.mem_ctrl.dram.perBankRdBursts::10        54474                       # Per bank write bursts (Count)
system.mem_ctrl.dram.perBankRdBursts::11        51409                       # Per bank write bursts (Count)
system.mem_ctrl.dram.perBankRdBursts::12        66432                       # Per bank write bursts (Count)
system.mem_ctrl.dram.perBankRdBursts::13        51255                       # Per bank write bursts (Count)
system.mem_ctrl.dram.perBankRdBursts::14        52578                       # Per bank write bursts (Count)
system.mem_ctrl.dram.perBankRdBursts::15        53095                       # Per bank write bursts (Count)
system.mem_ctrl.dram.perBankWrBursts::0         15444                       # Per bank write bursts (Count)
system.mem_ctrl.dram.perBankWrBursts::1         19212                       # Per bank write bursts (Count)
system.mem_ctrl.dram.perBankWrBursts::2         13851                       # Per bank write bursts (Count)
system.mem_ctrl.dram.perBankWrBursts::3         17207                       # Per bank write bursts (Count)
system.mem_ctrl.dram.perBankWrBursts::4         17929                       # Per bank write bursts (Count)
system.mem_ctrl.dram.perBankWrBursts::5         14768                       # Per bank write bursts (Count)
system.mem_ctrl.dram.perBankWrBursts::6         16650                       # Per bank write bursts (Count)
system.mem_ctrl.dram.perBankWrBursts::7         18256                       # Per bank write bursts (Count)
system.mem_ctrl.dram.perBankWrBursts::8         19470                       # Per bank write bursts (Count)
system.mem_ctrl.dram.perBankWrBursts::9         16744                       # Per bank write bursts (Count)
system.mem_ctrl.dram.perBankWrBursts::10        15052                       # Per bank write bursts (Count)
system.mem_ctrl.dram.perBankWrBursts::11        18067                       # Per bank write bursts (Count)
system.mem_ctrl.dram.perBankWrBursts::12        19180                       # Per bank write bursts (Count)
system.mem_ctrl.dram.perBankWrBursts::13        15904                       # Per bank write bursts (Count)
system.mem_ctrl.dram.perBankWrBursts::14        16223                       # Per bank write bursts (Count)
system.mem_ctrl.dram.perBankWrBursts::15        13093                       # Per bank write bursts (Count)
system.mem_ctrl.dram.totQLat              14114647250                       # Total ticks spent queuing (Tick)
system.mem_ctrl.dram.totBusLat             4527500000                       # Total ticks spent in databus transfers (Tick)
system.mem_ctrl.dram.totMemAccLat         31092772250                       # Total ticks spent from burst creation until serviced by the DRAM (Tick)
system.mem_ctrl.dram.avgQLat                 15587.68                       # Average queueing delay per DRAM burst ((Tick/Count))
system.mem_ctrl.dram.avgBusLat                5000.00                       # Average bus latency per DRAM burst ((Tick/Count))
system.mem_ctrl.dram.avgMemAccLat            34337.68                       # Average memory access latency per DRAM burst ((Tick/Count))
system.mem_ctrl.dram.readRowHits               594987                       # Number of row buffer hits during reads (Count)
system.mem_ctrl.dram.writeRowHits              127156                       # Number of row buffer hits during writes (Count)
system.mem_ctrl.dram.readRowHitRate             65.71                       # Row buffer hit rate for reads (Ratio)
system.mem_ctrl.dram.writeRowHitRate            47.62                       # Row buffer hit rate for writes (Ratio)
system.mem_ctrl.dram.bytesPerActivate::samples       450398                       # Bytes accessed per row activation (Byte)
system.mem_ctrl.dram.bytesPerActivate::mean   166.612747                       # Bytes accessed per row activation (Byte)
system.mem_ctrl.dram.bytesPerActivate::gmean   115.052219                       # Bytes accessed per row activation (Byte)
system.mem_ctrl.dram.bytesPerActivate::stdev   195.394809                       # Bytes accessed per row activation (Byte)
system.mem_ctrl.dram.bytesPerActivate::0-127       238426     52.94%     52.94% # Bytes accessed per row activation (Byte)
system.mem_ctrl.dram.bytesPerActivate::128-255       129498     28.75%     81.69% # Bytes accessed per row activation (Byte)
system.mem_ctrl.dram.bytesPerActivate::256-383        36981      8.21%     89.90% # Bytes accessed per row activation (Byte)
system.mem_ctrl.dram.bytesPerActivate::384-511        15247      3.39%     93.28% # Bytes accessed per row activation (Byte)
system.mem_ctrl.dram.bytesPerActivate::512-639         8427      1.87%     95.16% # Bytes accessed per row activation (Byte)
system.mem_ctrl.dram.bytesPerActivate::640-767         5224      1.16%     96.32% # Bytes accessed per row activation (Byte)
system.mem_ctrl.dram.bytesPerActivate::768-895         3583      0.80%     97.11% # Bytes accessed per row activation (Byte)
system.mem_ctrl.dram.bytesPerActivate::896-1023         2440      0.54%     97.65% # Bytes accessed per row activation (Byte)
system.mem_ctrl.dram.bytesPerActivate::1024-1151        10572      2.35%    100.00% # Bytes accessed per row activation (Byte)
system.mem_ctrl.dram.bytesPerActivate::total       450398                       # Bytes accessed per row activation (Byte)
system.mem_ctrl.dram.dramBytesRead           57952000                       # Total bytes read (Byte)
system.mem_ctrl.dram.dramBytesWritten        17091200                       # Total bytes written (Byte)
system.mem_ctrl.dram.avgRdBW               185.182960                       # Average DRAM read bandwidth in MiBytes/s ((Byte/Second))
system.mem_ctrl.dram.avgWrBW                54.614146                       # Average DRAM write bandwidth in MiBytes/s ((Byte/Second))
system.mem_ctrl.dram.peakBW                  12800.00                       # Theoretical peak bandwidth in MiByte/s ((Byte/Second))
system.mem_ctrl.dram.busUtil                     1.87                       # Data bus utilization in percentage (Ratio)
system.mem_ctrl.dram.busUtilRead                 1.45                       # Data bus utilization in percentage for reads (Ratio)
system.mem_ctrl.dram.busUtilWrite                0.43                       # Data bus utilization in percentage for writes (Ratio)
system.mem_ctrl.dram.pageHitRate                61.59                       # Row buffer hit rate, read and write combined (Ratio)
system.mem_ctrl.dram.power_state.pwrStateResidencyTicks::UNDEFINED 312944560000                       # Cumulative time (in ticks) in various power states (Tick)
system.mem_ctrl.dram.rank0.actEnergy       1635352740                       # Energy for activate commands per rank (pJ) (Joule)
system.mem_ctrl.dram.rank0.preEnergy        869191620                       # Energy for precharge commands per rank (pJ) (Joule)
system.mem_ctrl.dram.rank0.readEnergy      3249799560                       # Energy for read commands per rank (pJ) (Joule)
system.mem_ctrl.dram.rank0.writeEnergy      695914740                       # Energy for write commands per rank (pJ) (Joule)
system.mem_ctrl.dram.rank0.refreshEnergy 24702996240.000004                       # Energy for refresh commands per rank (pJ) (Joule)
system.mem_ctrl.dram.rank0.actBackEnergy  38371352910                       # Energy for active background per rank (pJ) (Joule)
system.mem_ctrl.dram.rank0.preBackEnergy  87857992800                       # Energy for precharge background per rank (pJ) (Joule)
system.mem_ctrl.dram.rank0.actPowerDownEnergy            0                       # Energy for active power-down per rank (pJ) (Joule)
system.mem_ctrl.dram.rank0.prePowerDownEnergy            0                       # Energy for precharge power-down per rank (pJ) (Joule)
system.mem_ctrl.dram.rank0.selfRefreshEnergy            0                       # Energy for self refresh per rank (pJ) (Joule)
system.mem_ctrl.dram.rank0.totalEnergy   157382600610                       # Total energy per rank (pJ) (Joule)
system.mem_ctrl.dram.rank0.averagePower    502.908888                       # Core power per rank (mW) (Watt)
system.mem_ctrl.dram.rank0.totalIdleTime            0                       # Total Idle time Per DRAM Rank (Tick)
system.mem_ctrl.dram.rank0.pwrStateTime::IDLE 228060165000                       # Time in different power states (Tick)
system.mem_ctrl.dram.rank0.pwrStateTime::REF  10449660000                       # Time in different power states (Tick)
system.mem_ctrl.dram.rank0.pwrStateTime::SREF            0                       # Time in different power states (Tick)
system.mem_ctrl.dram.rank0.pwrStateTime::PRE_PDN            0                       # Time in different power states (Tick)
system.mem_ctrl.dram.rank0.pwrStateTime::ACT  74434735000                       # Time in different power states (Tick)
system.mem_ctrl.dram.rank0.pwrStateTime::ACT_PDN            0                       # Time in different power states (Tick)
system.mem_ctrl.dram.rank1.actEnergy       1580553240                       # Energy for activate commands per rank (pJ) (Joule)
system.mem_ctrl.dram.rank1.preEnergy        840068790                       # Energy for precharge commands per rank (pJ) (Joule)
system.mem_ctrl.dram.rank1.readEnergy      3215470440                       # Energy for read commands per rank (pJ) (Joule)
system.mem_ctrl.dram.rank1.writeEnergy      698086260                       # Energy for write commands per rank (pJ) (Joule)
system.mem_ctrl.dram.rank1.refreshEnergy 24702996240.000004                       # Energy for refresh commands per rank (pJ) (Joule)
system.mem_ctrl.dram.rank1.actBackEnergy  36829700700                       # Energy for active background per rank (pJ) (Joule)
system.mem_ctrl.dram.rank1.preBackEnergy  89156226240                       # Energy for precharge background per rank (pJ) (Joule)
system.mem_ctrl.dram.rank1.actPowerDownEnergy            0                       # Energy for active power-down per rank (pJ) (Joule)
system.mem_ctrl.dram.rank1.prePowerDownEnergy            0                       # Energy for precharge power-down per rank (pJ) (Joule)
system.mem_ctrl.dram.rank1.selfRefreshEnergy            0                       # Energy for self refresh per rank (pJ) (Joule)
system.mem_ctrl.dram.rank1.totalEnergy   157023101910                       # Total energy per rank (pJ) (Joule)
system.mem_ctrl.dram.rank1.averagePower    501.760126                       # Core power per rank (mW) (Watt)
system.mem_ctrl.dram.rank1.totalIdleTime            0                       # Total Idle time Per DRAM Rank (Tick)
system.mem_ctrl.dram.rank1.pwrStateTime::IDLE 231449907250                       # Time in different power states (Tick)
system.mem_ctrl.dram.rank1.pwrStateTime::REF  10449660000                       # Time in different power states (Tick)
system.mem_ctrl.dram.rank1.pwrStateTime::SREF            0                       # Time in different power states (Tick)
system.mem_ctrl.dram.rank1.pwrStateTime::PRE_PDN            0                       # Time in different power states (Tick)
system.mem_ctrl.dram.rank1.pwrStateTime::ACT  71044992750                       # Time in different power states (Tick)
system.mem_ctrl.dram.rank1.pwrStateTime::ACT_PDN            0                       # Time in different power states (Tick)
system.mem_ctrl.power_state.pwrStateResidencyTicks::UNDEFINED 312944560000                       # Cumulative time (in ticks) in various power states (Tick)
system.membus.transDist::ReadResp              826741                       # Transaction distribution (Count)
system.membus.transDist::WritebackDirty        267345                       # Transaction distribution (Count)
system.membus.transDist::CleanEvict            637474                       # Transaction distribution (Count)
system.membus.transDist::UpgradeReq               455                       # Transaction distribution (Count)
system.membus.transDist::ReadExReq              82781                       # Transaction distribution (Count)
system.membus.transDist::ReadExResp             82780                       # Transaction distribution (Count)
system.membus.transDist::ReadSharedReq         826741                       # Transaction distribution (Count)
system.membus.pktCount_system.l2cache.mem_side_port::system.mem_ctrl.port      2724317                       # Packet count per connected requestor and responder (Count)
system.membus.pktCount_system.l2cache.mem_side_port::total      2724317                       # Packet count per connected requestor and responder (Count)
system.membus.pktCount::total                 2724317                       # Packet count per connected requestor and responder (Count)
system.membus.pktSize_system.l2cache.mem_side_port::system.mem_ctrl.port     75319424                       # Cumulative packet size per connected requestor and responder (Byte)
system.membus.pktSize_system.l2cache.mem_side_port::total     75319424                       # Cumulative packet size per connected requestor and responder (Byte)
system.membus.pktSize::total                 75319424                       # Cumulative packet size per connected requestor and responder (Byte)
system.membus.snoops                               39                       # Total snoops (Count)
system.membus.snoopTraffic                          0                       # Total snoop traffic (Byte)
system.membus.snoopFanout::samples             909977                       # Request fanout histogram (Count)
system.membus.snoopFanout::mean                     0                       # Request fanout histogram (Count)
system.membus.snoopFanout::stdev                    0                       # Request fanout histogram (Count)
system.membus.snoopFanout::underflows               0      0.00%      0.00% # Request fanout histogram (Count)
system.membus.snoopFanout::0                   909977    100.00%    100.00% # Request fanout histogram (Count)
system.membus.snoopFanout::1                        0      0.00%    100.00% # Request fanout histogram (Count)
system.membus.snoopFanout::overflows                0      0.00%    100.00% # Request fanout histogram (Count)
system.membus.snoopFanout::min_value                0                       # Request fanout histogram (Count)
system.membus.snoopFanout::max_value                0                       # Request fanout histogram (Count)
system.membus.snoopFanout::total               909977                       # Request fanout histogram (Count)
system.membus.power_state.pwrStateResidencyTicks::UNDEFINED 312944560000                       # Cumulative time (in ticks) in various power states (Tick)
system.membus.reqLayer8.occupancy          1442068501                       # Layer occupancy (ticks) (Tick)
system.membus.reqLayer8.utilization               0.0                       # Layer utilization (Ratio)
system.membus.respLayer0.occupancy         2460793000                       # Layer occupancy (ticks) (Tick)
system.membus.respLayer0.utilization              0.0                       # Layer utilization (Ratio)
system.membus.snoop_filter.totRequests        1814796                       # Total number of requests made to the snoop filter. (Count)
system.membus.snoop_filter.hitSingleRequests       905894                       # Number of requests hitting in the snoop filter with a single holder of the requested data. (Count)
system.membus.snoop_filter.hitMultiRequests            0                       # Number of requests hitting in the snoop filter with multiple (>1) holders of the requested data. (Count)
system.membus.snoop_filter.totSnoops                0                       # Total number of snoops made to the snoop filter. (Count)
system.membus.snoop_filter.hitSingleSnoops            0                       # Number of snoops hitting in the snoop filter with a single holder of the requested data. (Count)
system.membus.snoop_filter.hitMultiSnoops            0                       # Number of snoops hitting in the snoop filter with multiple (>1) holders of the requested data. (Count)
system.workload.inst.arm                            0                       # number of arm instructions executed (Count)
system.workload.inst.quiesce                        0                       # number of quiesce instructions executed (Count)

---------- End Simulation Statistics   ----------
