
---------- Begin Simulation Statistics ----------
simSeconds                                   0.008784                       # Number of seconds simulated (Second)
simTicks                                   8783970300                       # Number of ticks simulated (Tick)
finalTick                                  8783970300                       # Number of ticks from beginning of simulation (restored from checkpoints and never reset) (Tick)
simFreq                                  1000000000000                       # The number of ticks per simulated second ((Tick/Second))
hostSeconds                                     86.14                       # Real time elapsed on the host (Second)
hostTickRate                                101968708                       # The number of ticks simulated per host second (ticks/s) ((Tick/Second))
hostMemory                                    8525288                       # Number of bytes of host memory used (Byte)
simInsts                                     14793986                       # Number of instructions simulated (Count)
simOps                                       17433143                       # Number of ops (including micro ops) simulated (Count)
hostInstRate                                   171736                       # Simulator instruction rate (inst/s) ((Count/Second))
hostOpRate                                     202372                       # Simulator op (including micro ops) rate (op/s) ((Count/Second))
system.clk_domain.clock                           588                       # Clock period in ticks (Tick)
system.clk_domain.voltage_domain.voltage     1.100000                       # Voltage in Volts (Volt)
system.cpu.numCycles                         14938726                       # Number of cpu cycles simulated (Cycle)
system.cpu.numWorkItemsStarted                      0                       # Number of work items this cpu started (Count)
system.cpu.numWorkItemsCompleted                    0                       # Number of work items this cpu completed (Count)
system.cpu.instsAdded                        19730893                       # Number of instructions added to the IQ (excludes non-spec) (Count)
system.cpu.nonSpecInstsAdded                   274929                       # Number of non-speculative instructions added to the IQ (Count)
system.cpu.instsIssued                       19597299                       # Number of instructions issued (Count)
system.cpu.squashedInstsIssued                  60525                       # Number of squashed instructions issued (Count)
system.cpu.squashedInstsExamined              2572678                       # Number of squashed instructions iterated over during squash; mainly for profiling (Count)
system.cpu.squashedOperandsExamined            983097                       # Number of squashed operands that are examined and possibly removed from graph (Count)
system.cpu.squashedNonSpecRemoved               29929                       # Number of squashed non-spec instructions that were removed (Count)
system.cpu.numIssuedDist::samples            14899126                       # Number of insts issued each cycle (Count)
system.cpu.numIssuedDist::mean               1.315332                       # Number of insts issued each cycle (Count)
system.cpu.numIssuedDist::stdev              1.206965                       # Number of insts issued each cycle (Count)
system.cpu.numIssuedDist::underflows                0      0.00%      0.00% # Number of insts issued each cycle (Count)
system.cpu.numIssuedDist::0                   5475378     36.75%     36.75% # Number of insts issued each cycle (Count)
system.cpu.numIssuedDist::1                   2567052     17.23%     53.98% # Number of insts issued each cycle (Count)
system.cpu.numIssuedDist::2                   3990302     26.78%     80.76% # Number of insts issued each cycle (Count)
system.cpu.numIssuedDist::3                   2417146     16.22%     96.98% # Number of insts issued each cycle (Count)
system.cpu.numIssuedDist::4                    448035      3.01%     99.99% # Number of insts issued each cycle (Count)
system.cpu.numIssuedDist::5                      1213      0.01%    100.00% # Number of insts issued each cycle (Count)
system.cpu.numIssuedDist::6                         0      0.00%    100.00% # Number of insts issued each cycle (Count)
system.cpu.numIssuedDist::7                         0      0.00%    100.00% # Number of insts issued each cycle (Count)
system.cpu.numIssuedDist::8                         0      0.00%    100.00% # Number of insts issued each cycle (Count)
system.cpu.numIssuedDist::overflows                 0      0.00%    100.00% # Number of insts issued each cycle (Count)
system.cpu.numIssuedDist::min_value                 0                       # Number of insts issued each cycle (Count)
system.cpu.numIssuedDist::max_value                 5                       # Number of insts issued each cycle (Count)
system.cpu.numIssuedDist::total              14899126                       # Number of insts issued each cycle (Count)
system.cpu.statFuBusy::No_OpClass             5203745      1.89%      1.89% # attempts to use FU when none available (Count)
system.cpu.statFuBusy::IntAlu                 5203745      1.89%      3.77% # attempts to use FU when none available (Count)
system.cpu.statFuBusy::IntMult                5203745      1.89%      5.66% # attempts to use FU when none available (Count)
system.cpu.statFuBusy::IntDiv                 5203745      1.89%      7.55% # attempts to use FU when none available (Count)
system.cpu.statFuBusy::FloatAdd               5203745      1.89%      9.43% # attempts to use FU when none available (Count)
system.cpu.statFuBusy::FloatCmp               5203745      1.89%     11.32% # attempts to use FU when none available (Count)
system.cpu.statFuBusy::FloatCvt               5203745      1.89%     13.21% # attempts to use FU when none available (Count)
system.cpu.statFuBusy::FloatMult              5203745      1.89%     15.09% # attempts to use FU when none available (Count)
system.cpu.statFuBusy::FloatMultAcc           5203745      1.89%     16.98% # attempts to use FU when none available (Count)
system.cpu.statFuBusy::FloatDiv               5203745      1.89%     18.87% # attempts to use FU when none available (Count)
system.cpu.statFuBusy::FloatMisc              5203745      1.89%     20.75% # attempts to use FU when none available (Count)
system.cpu.statFuBusy::FloatSqrt              5203745      1.89%     22.64% # attempts to use FU when none available (Count)
system.cpu.statFuBusy::SimdAdd                5203745      1.89%     24.53% # attempts to use FU when none available (Count)
system.cpu.statFuBusy::SimdAddAcc             5203745      1.89%     26.42% # attempts to use FU when none available (Count)
system.cpu.statFuBusy::SimdAlu                5203745      1.89%     28.30% # attempts to use FU when none available (Count)
system.cpu.statFuBusy::SimdCmp                5203745      1.89%     30.19% # attempts to use FU when none available (Count)
system.cpu.statFuBusy::SimdCvt                5203745      1.89%     32.08% # attempts to use FU when none available (Count)
system.cpu.statFuBusy::SimdMisc               5203745      1.89%     33.96% # attempts to use FU when none available (Count)
system.cpu.statFuBusy::SimdMult               5203745      1.89%     35.85% # attempts to use FU when none available (Count)
system.cpu.statFuBusy::SimdMultAcc            5203745      1.89%     37.74% # attempts to use FU when none available (Count)
system.cpu.statFuBusy::SimdShift              5203745      1.89%     39.62% # attempts to use FU when none available (Count)
system.cpu.statFuBusy::SimdShiftAcc           5203745      1.89%     41.51% # attempts to use FU when none available (Count)
system.cpu.statFuBusy::SimdDiv                5203745      1.89%     43.40% # attempts to use FU when none available (Count)
system.cpu.statFuBusy::SimdSqrt               5203745      1.89%     45.28% # attempts to use FU when none available (Count)
system.cpu.statFuBusy::SimdFloatAdd           5203745      1.89%     47.17% # attempts to use FU when none available (Count)
system.cpu.statFuBusy::SimdFloatAlu           5203745      1.89%     49.06% # attempts to use FU when none available (Count)
system.cpu.statFuBusy::SimdFloatCmp           5203745      1.89%     50.94% # attempts to use FU when none available (Count)
system.cpu.statFuBusy::SimdFloatCvt           5203745      1.89%     52.83% # attempts to use FU when none available (Count)
system.cpu.statFuBusy::SimdFloatDiv           5203745      1.89%     54.72% # attempts to use FU when none available (Count)
system.cpu.statFuBusy::SimdFloatMisc          5203745      1.89%     56.60% # attempts to use FU when none available (Count)
system.cpu.statFuBusy::SimdFloatMult          5203745      1.89%     58.49% # attempts to use FU when none available (Count)
system.cpu.statFuBusy::SimdFloatMultAcc       5203745      1.89%     60.38% # attempts to use FU when none available (Count)
system.cpu.statFuBusy::SimdFloatSqrt          5203745      1.89%     62.26% # attempts to use FU when none available (Count)
system.cpu.statFuBusy::SimdReduceAdd          5203745      1.89%     64.15% # attempts to use FU when none available (Count)
system.cpu.statFuBusy::SimdReduceAlu          5203745      1.89%     66.04% # attempts to use FU when none available (Count)
system.cpu.statFuBusy::SimdReduceCmp          5203745      1.89%     67.92% # attempts to use FU when none available (Count)
system.cpu.statFuBusy::SimdFloatReduceAdd      5203745      1.89%     69.81% # attempts to use FU when none available (Count)
system.cpu.statFuBusy::SimdFloatReduceCmp      5203745      1.89%     71.70% # attempts to use FU when none available (Count)
system.cpu.statFuBusy::SimdAes                5203745      1.89%     73.58% # attempts to use FU when none available (Count)
system.cpu.statFuBusy::SimdAesMix             5203745      1.89%     75.47% # attempts to use FU when none available (Count)
system.cpu.statFuBusy::SimdSha1Hash           5203745      1.89%     77.36% # attempts to use FU when none available (Count)
system.cpu.statFuBusy::SimdSha1Hash2          5203745      1.89%     79.25% # attempts to use FU when none available (Count)
system.cpu.statFuBusy::SimdSha256Hash         5203745      1.89%     81.13% # attempts to use FU when none available (Count)
system.cpu.statFuBusy::SimdSha256Hash2        5203745      1.89%     83.02% # attempts to use FU when none available (Count)
system.cpu.statFuBusy::SimdShaSigma2          5203745      1.89%     84.91% # attempts to use FU when none available (Count)
system.cpu.statFuBusy::SimdShaSigma3          5203745      1.89%     86.79% # attempts to use FU when none available (Count)
system.cpu.statFuBusy::SimdPredAlu            5203745      1.89%     88.68% # attempts to use FU when none available (Count)
system.cpu.statFuBusy::MemRead                5203745      1.89%     90.57% # attempts to use FU when none available (Count)
system.cpu.statFuBusy::MemWrite               5203745      1.89%     92.45% # attempts to use FU when none available (Count)
system.cpu.statFuBusy::FloatMemRead           5203745      1.89%     94.34% # attempts to use FU when none available (Count)
system.cpu.statFuBusy::FloatMemWrite          5203745      1.89%     96.23% # attempts to use FU when none available (Count)
system.cpu.statFuBusy::IprAccess              5203745      1.89%     98.11% # attempts to use FU when none available (Count)
system.cpu.statFuBusy::InstPrefetch           5203745      1.89%    100.00% # attempts to use FU when none available (Count)
system.cpu.statIssuedInstType_0::No_OpClass     19597299      1.89%      1.89% # Number of instructions issued per FU type, per thread (Count)
system.cpu.statIssuedInstType_0::IntAlu      19597299      1.89%      3.77% # Number of instructions issued per FU type, per thread (Count)
system.cpu.statIssuedInstType_0::IntMult     19597299      1.89%      5.66% # Number of instructions issued per FU type, per thread (Count)
system.cpu.statIssuedInstType_0::IntDiv      19597299      1.89%      7.55% # Number of instructions issued per FU type, per thread (Count)
system.cpu.statIssuedInstType_0::FloatAdd     19597299      1.89%      9.43% # Number of instructions issued per FU type, per thread (Count)
system.cpu.statIssuedInstType_0::FloatCmp     19597299      1.89%     11.32% # Number of instructions issued per FU type, per thread (Count)
system.cpu.statIssuedInstType_0::FloatCvt     19597299      1.89%     13.21% # Number of instructions issued per FU type, per thread (Count)
system.cpu.statIssuedInstType_0::FloatMult     19597299      1.89%     15.09% # Number of instructions issued per FU type, per thread (Count)
system.cpu.statIssuedInstType_0::FloatMultAcc     19597299      1.89%     16.98% # Number of instructions issued per FU type, per thread (Count)
system.cpu.statIssuedInstType_0::FloatDiv     19597299      1.89%     18.87% # Number of instructions issued per FU type, per thread (Count)
system.cpu.statIssuedInstType_0::FloatMisc     19597299      1.89%     20.75% # Number of instructions issued per FU type, per thread (Count)
system.cpu.statIssuedInstType_0::FloatSqrt     19597299      1.89%     22.64% # Number of instructions issued per FU type, per thread (Count)
system.cpu.statIssuedInstType_0::SimdAdd     19597299      1.89%     24.53% # Number of instructions issued per FU type, per thread (Count)
system.cpu.statIssuedInstType_0::SimdAddAcc     19597299      1.89%     26.42% # Number of instructions issued per FU type, per thread (Count)
system.cpu.statIssuedInstType_0::SimdAlu     19597299      1.89%     28.30% # Number of instructions issued per FU type, per thread (Count)
system.cpu.statIssuedInstType_0::SimdCmp     19597299      1.89%     30.19% # Number of instructions issued per FU type, per thread (Count)
system.cpu.statIssuedInstType_0::SimdCvt     19597299      1.89%     32.08% # Number of instructions issued per FU type, per thread (Count)
system.cpu.statIssuedInstType_0::SimdMisc     19597299      1.89%     33.96% # Number of instructions issued per FU type, per thread (Count)
system.cpu.statIssuedInstType_0::SimdMult     19597299      1.89%     35.85% # Number of instructions issued per FU type, per thread (Count)
system.cpu.statIssuedInstType_0::SimdMultAcc     19597299      1.89%     37.74% # Number of instructions issued per FU type, per thread (Count)
system.cpu.statIssuedInstType_0::SimdShift     19597299      1.89%     39.62% # Number of instructions issued per FU type, per thread (Count)
system.cpu.statIssuedInstType_0::SimdShiftAcc     19597299      1.89%     41.51% # Number of instructions issued per FU type, per thread (Count)
system.cpu.statIssuedInstType_0::SimdDiv     19597299      1.89%     43.40% # Number of instructions issued per FU type, per thread (Count)
system.cpu.statIssuedInstType_0::SimdSqrt     19597299      1.89%     45.28% # Number of instructions issued per FU type, per thread (Count)
system.cpu.statIssuedInstType_0::SimdFloatAdd     19597299      1.89%     47.17% # Number of instructions issued per FU type, per thread (Count)
system.cpu.statIssuedInstType_0::SimdFloatAlu     19597299      1.89%     49.06% # Number of instructions issued per FU type, per thread (Count)
system.cpu.statIssuedInstType_0::SimdFloatCmp     19597299      1.89%     50.94% # Number of instructions issued per FU type, per thread (Count)
system.cpu.statIssuedInstType_0::SimdFloatCvt     19597299      1.89%     52.83% # Number of instructions issued per FU type, per thread (Count)
system.cpu.statIssuedInstType_0::SimdFloatDiv     19597299      1.89%     54.72% # Number of instructions issued per FU type, per thread (Count)
system.cpu.statIssuedInstType_0::SimdFloatMisc     19597299      1.89%     56.60% # Number of instructions issued per FU type, per thread (Count)
system.cpu.statIssuedInstType_0::SimdFloatMult     19597299      1.89%     58.49% # Number of instructions issued per FU type, per thread (Count)
system.cpu.statIssuedInstType_0::SimdFloatMultAcc     19597299      1.89%     60.38% # Number of instructions issued per FU type, per thread (Count)
system.cpu.statIssuedInstType_0::SimdFloatSqrt     19597299      1.89%     62.26% # Number of instructions issued per FU type, per thread (Count)
system.cpu.statIssuedInstType_0::SimdReduceAdd     19597299      1.89%     64.15% # Number of instructions issued per FU type, per thread (Count)
system.cpu.statIssuedInstType_0::SimdReduceAlu     19597299      1.89%     66.04% # Number of instructions issued per FU type, per thread (Count)
system.cpu.statIssuedInstType_0::SimdReduceCmp     19597299      1.89%     67.92% # Number of instructions issued per FU type, per thread (Count)
system.cpu.statIssuedInstType_0::SimdFloatReduceAdd     19597299      1.89%     69.81% # Number of instructions issued per FU type, per thread (Count)
system.cpu.statIssuedInstType_0::SimdFloatReduceCmp     19597299      1.89%     71.70% # Number of instructions issued per FU type, per thread (Count)
system.cpu.statIssuedInstType_0::SimdAes     19597299      1.89%     73.58% # Number of instructions issued per FU type, per thread (Count)
system.cpu.statIssuedInstType_0::SimdAesMix     19597299      1.89%     75.47% # Number of instructions issued per FU type, per thread (Count)
system.cpu.statIssuedInstType_0::SimdSha1Hash     19597299      1.89%     77.36% # Number of instructions issued per FU type, per thread (Count)
system.cpu.statIssuedInstType_0::SimdSha1Hash2     19597299      1.89%     79.25% # Number of instructions issued per FU type, per thread (Count)
system.cpu.statIssuedInstType_0::SimdSha256Hash     19597299      1.89%     81.13% # Number of instructions issued per FU type, per thread (Count)
system.cpu.statIssuedInstType_0::SimdSha256Hash2     19597299      1.89%     83.02% # Number of instructions issued per FU type, per thread (Count)
system.cpu.statIssuedInstType_0::SimdShaSigma2     19597299      1.89%     84.91% # Number of instructions issued per FU type, per thread (Count)
system.cpu.statIssuedInstType_0::SimdShaSigma3     19597299      1.89%     86.79% # Number of instructions issued per FU type, per thread (Count)
system.cpu.statIssuedInstType_0::SimdPredAlu     19597299      1.89%     88.68% # Number of instructions issued per FU type, per thread (Count)
system.cpu.statIssuedInstType_0::MemRead     19597299      1.89%     90.57% # Number of instructions issued per FU type, per thread (Count)
system.cpu.statIssuedInstType_0::MemWrite     19597299      1.89%     92.45% # Number of instructions issued per FU type, per thread (Count)
system.cpu.statIssuedInstType_0::FloatMemRead     19597299      1.89%     94.34% # Number of instructions issued per FU type, per thread (Count)
system.cpu.statIssuedInstType_0::FloatMemWrite     19597299      1.89%     96.23% # Number of instructions issued per FU type, per thread (Count)
system.cpu.statIssuedInstType_0::IprAccess     19597299      1.89%     98.11% # Number of instructions issued per FU type, per thread (Count)
system.cpu.statIssuedInstType_0::InstPrefetch     19597299      1.89%    100.00% # Number of instructions issued per FU type, per thread (Count)
system.cpu.statIssuedInstType_0::total     1038656847                       # Number of instructions issued per FU type, per thread (Count)
system.cpu.issueRate                         1.311845                       # Inst issue rate ((Count/Cycle))
system.cpu.fuBusy                             5203745                       # FU busy when requested (Count)
system.cpu.fuBusyRate                        0.265534                       # FU busy rate (busy events/executed inst) ((Count/Count))
system.cpu.intInstQueueReads                 58955112                       # Number of integer instruction queue reads (Count)
system.cpu.intInstQueueWrites                22428358                       # Number of integer instruction queue writes (Count)
system.cpu.intInstQueueWakeupAccesses        19057923                       # Number of integer instruction queue wakeup accesses (Count)
system.cpu.fpInstQueueReads                         0                       # Number of floating instruction queue reads (Count)
system.cpu.fpInstQueueWrites                        0                       # Number of floating instruction queue writes (Count)
system.cpu.fpInstQueueWakeupAccesses                0                       # Number of floating instruction queue wakeup accesses (Count)
system.cpu.vecInstQueueReads                   402882                       # Number of vector instruction queue reads (Count)
system.cpu.vecInstQueueWrites                  160228                       # Number of vector instruction queue writes (Count)
system.cpu.vecInstQueueWakeupAccesses          160158                       # Number of vector instruction queue wakeup accesses (Count)
system.cpu.intAluAccesses                    24353413                       # Number of integer alu accesses (Count)
system.cpu.fpAluAccesses                            0                       # Number of floating point alu accesses (Count)
system.cpu.vecAluAccesses                      242687                       # Number of vector alu accesses (Count)
system.cpu.idleCycles                               0                       # Number of cycles IEW is idle (Cycle)
system.cpu.squashCycles                         99573                       # Number of cycles IEW is squashing (Cycle)
system.cpu.blockCycles                         275239                       # Number of cycles IEW is blocking (Cycle)
system.cpu.unblockCycles                          857                       # Number of cycles IEW is unblocking (Cycle)
system.cpu.dispatchedInsts                   20140542                       # Number of instructions dispatched to IQ (Count)
system.cpu.dispSquashedInsts                        0                       # Number of squashed instructions skipped by dispatch (Count)
system.cpu.dispLoadInsts                      3507032                       # Number of dispatched load instructions (Count)
system.cpu.dispStoreInsts                     3075893                       # Number of dispatched store instructions (Count)
system.cpu.dispNonSpecInsts                    274927                       # Number of dispatched non-speculative instructions (Count)
system.cpu.iqFullEvents                             2                       # Number of times the IQ has become full, causing a stall (Count)
system.cpu.lsqFullEvents                          854                       # Number of times the LSQ has become full, causing a stall (Count)
system.cpu.memOrderViolationEvents              10086                       # Number of memory order violations (Count)
system.cpu.predictedTakenIncorrect              41040                       # Number of branches that were predicted taken incorrectly (Count)
system.cpu.predictedNotTakenIncorrect           59778                       # Number of branches that were predicted not taken incorrectly (Count)
system.cpu.branchMispredicts                   100818                       # Number of branch mispredicts detected at execute (Count)
system.cpu.numInsts                          19406884                       # Number of executed instructions (Count)
system.cpu.numLoadInsts                       3485616                       # Number of load instructions executed (Count)
system.cpu.numSquashedInsts                    190415                       # Number of squashed instructions skipped in execute (Count)
system.cpu.numSwp                                   0                       # Number of swp insts executed (Count)
system.cpu.numNop                              134720                       # Number of nop insts executed (Count)
system.cpu.numRefs                            6364653                       # Number of memory reference insts executed (Count)
system.cpu.numBranches                        3624291                       # Number of branches executed (Count)
system.cpu.numStoreInsts                      2879037                       # Number of stores executed (Count)
system.cpu.numRate                           1.299099                       # Inst execution rate ((Count/Cycle))
system.cpu.instsToCommit                     19228007                       # Cumulative count of insts sent to commit (Count)
system.cpu.writebackCount                    19218081                       # Cumulative count of insts written-back (Count)
system.cpu.producerInst                       9657717                       # Number of instructions producing a value (Count)
system.cpu.consumerInst                      17839415                       # Number of instructions consuming a value (Count)
system.cpu.wbRate                            1.286461                       # Insts written-back per cycle ((Count/Cycle))
system.cpu.wbFanout                          0.541370                       # Average fanout of values written-back ((Count/Count))
system.cpu.timesIdled                             484                       # Number of times that the entire CPU went into an idle state and unscheduled itself (Count)
system.cpu.idleCycles                           39600                       # Total number of cycles that the CPU has spent unscheduled due to idling (Cycle)
system.cpu.committedInsts                    14793986                       # Number of Instructions Simulated (Count)
system.cpu.committedOps                      17433143                       # Number of Ops (including micro ops) Simulated (Count)
system.cpu.cpi                               1.009784                       # CPI: Cycles Per Instruction ((Cycle/Count))
system.cpu.totalCpi                          1.009784                       # CPI: Total CPI of All Threads ((Cycle/Count))
system.cpu.ipc                               0.990311                       # IPC: Instructions Per Cycle ((Count/Cycle))
system.cpu.totalIpc                          0.990311                       # IPC: Total IPC of All Threads ((Count/Cycle))
system.cpu.intRegfileReads                   22128953                       # Number of integer regfile reads (Count)
system.cpu.intRegfileWrites                  13453668                       # Number of integer regfile writes (Count)
system.cpu.vecRegfileReads                     160189                       # number of vector regfile reads (Count)
system.cpu.vecRegfileWrites                        83                       # number of vector regfile writes (Count)
system.cpu.ccRegfileReads                     5742198                       # number of cc regfile reads (Count)
system.cpu.ccRegfileWrites                    5636439                       # number of cc regfile writes (Count)
system.cpu.miscRegfileReads                  47737738                       # number of misc regfile reads (Count)
system.cpu.miscRegfileWrites                    80073                       # number of misc regfile writes (Count)
system.cpu.MemDepUnit__0.insertedLoads        3507032                       # Number of loads inserted to the mem dependence unit. (Count)
system.cpu.MemDepUnit__0.insertedStores       3075893                       # Number of stores inserted to the mem dependence unit. (Count)
system.cpu.MemDepUnit__0.conflictingLoads       950240                       # Number of conflicting loads. (Count)
system.cpu.MemDepUnit__0.conflictingStores       283533                       # Number of conflicting stores. (Count)
system.cpu.MemDepUnit__1.insertedLoads              0                       # Number of loads inserted to the mem dependence unit. (Count)
system.cpu.MemDepUnit__1.insertedStores             0                       # Number of stores inserted to the mem dependence unit. (Count)
system.cpu.MemDepUnit__1.conflictingLoads            0                       # Number of conflicting loads. (Count)
system.cpu.MemDepUnit__1.conflictingStores            0                       # Number of conflicting stores. (Count)
system.cpu.MemDepUnit__2.insertedLoads              0                       # Number of loads inserted to the mem dependence unit. (Count)
system.cpu.MemDepUnit__2.insertedStores             0                       # Number of stores inserted to the mem dependence unit. (Count)
system.cpu.MemDepUnit__2.conflictingLoads            0                       # Number of conflicting loads. (Count)
system.cpu.MemDepUnit__2.conflictingStores            0                       # Number of conflicting stores. (Count)
system.cpu.MemDepUnit__3.insertedLoads              0                       # Number of loads inserted to the mem dependence unit. (Count)
system.cpu.MemDepUnit__3.insertedStores             0                       # Number of stores inserted to the mem dependence unit. (Count)
system.cpu.MemDepUnit__3.conflictingLoads            0                       # Number of conflicting loads. (Count)
system.cpu.MemDepUnit__3.conflictingStores            0                       # Number of conflicting stores. (Count)
system.cpu.branchPred.lookups                 4202328                       # Number of BP lookups (Count)
system.cpu.branchPred.condPredicted           2626765                       # Number of conditional branches predicted (Count)
system.cpu.branchPred.condIncorrect             89757                       # Number of conditional branches incorrect (Count)
system.cpu.branchPred.BTBLookups              1631550                       # Number of BTB lookups (Count)
system.cpu.branchPred.BTBHits                 1629462                       # Number of BTB hits (Count)
system.cpu.branchPred.BTBHitRatio            0.998720                       # BTB Hit Ratio (Ratio)
system.cpu.branchPred.RASUsed                  503714                       # Number of times the RAS was used to get a target. (Count)
system.cpu.branchPred.RASIncorrect                 13                       # Number of incorrect RAS predictions. (Count)
system.cpu.branchPred.indirectLookups          263502                       # Number of indirect predictor lookups. (Count)
system.cpu.branchPred.indirectHits             261543                       # Number of indirect target hits. (Count)
system.cpu.branchPred.indirectMisses             1959                       # Number of indirect misses. (Count)
system.cpu.branchPred.indirectMispredicted          124                       # Number of mispredicted indirect branches. (Count)
system.cpu.commit.commitSquashedInsts         2394484                       # The number of squashed insts skipped by commit (Count)
system.cpu.commit.commitNonSpecStalls          245000                       # The number of times commit has been forced to stall to communicate backwards (Count)
system.cpu.commit.branchMispredicts             89422                       # The number of times a branch was mispredicted (Count)
system.cpu.commit.numCommittedDist::samples     14554324                       # Number of insts commited each cycle (Count)
system.cpu.commit.numCommittedDist::mean     1.206762                       # Number of insts commited each cycle (Count)
system.cpu.commit.numCommittedDist::stdev     2.096214                       # Number of insts commited each cycle (Count)
system.cpu.commit.numCommittedDist::underflows            0      0.00%      0.00% # Number of insts commited each cycle (Count)
system.cpu.commit.numCommittedDist::0         8492424     58.35%     58.35% # Number of insts commited each cycle (Count)
system.cpu.commit.numCommittedDist::1         2403456     16.51%     74.86% # Number of insts commited each cycle (Count)
system.cpu.commit.numCommittedDist::2         1377207      9.46%     84.33% # Number of insts commited each cycle (Count)
system.cpu.commit.numCommittedDist::3          635105      4.36%     88.69% # Number of insts commited each cycle (Count)
system.cpu.commit.numCommittedDist::4          373201      2.56%     91.25% # Number of insts commited each cycle (Count)
system.cpu.commit.numCommittedDist::5          213426      1.47%     92.72% # Number of insts commited each cycle (Count)
system.cpu.commit.numCommittedDist::6          219199      1.51%     94.23% # Number of insts commited each cycle (Count)
system.cpu.commit.numCommittedDist::7           97163      0.67%     94.89% # Number of insts commited each cycle (Count)
system.cpu.commit.numCommittedDist::8          743143      5.11%    100.00% # Number of insts commited each cycle (Count)
system.cpu.commit.numCommittedDist::overflows            0      0.00%    100.00% # Number of insts commited each cycle (Count)
system.cpu.commit.numCommittedDist::min_value            0                       # Number of insts commited each cycle (Count)
system.cpu.commit.numCommittedDist::max_value            8                       # Number of insts commited each cycle (Count)
system.cpu.commit.numCommittedDist::total     14554324                       # Number of insts commited each cycle (Count)
system.cpu.commit.instsCommitted             14924441                       # Number of instructions committed (Count)
system.cpu.commit.opsCommitted               17563598                       # Number of ops (including micro ops) committed (Count)
system.cpu.commit.memRefs                     5715267                       # Number of memory references committed (Count)
system.cpu.commit.loads                       3035058                       # Number of loads committed (Count)
system.cpu.commit.amos                          40028                       # Number of atomic instructions committed (Count)
system.cpu.commit.membars                       40034                       # Number of memory barriers committed (Count)
system.cpu.commit.branches                    3209663                       # Number of branches committed (Count)
system.cpu.commit.vectorInstructions           160152                       # Number of committed Vector instructions. (Count)
system.cpu.commit.floating                          0                       # Number of committed floating point instructions. (Count)
system.cpu.commit.integer                    15499030                       # Number of committed integer instructions. (Count)
system.cpu.commit.functionCalls                385571                       # Number of function calls committed. (Count)
system.cpu.commit.committedInstType_0::No_OpClass     17563598      1.89%      1.89% # Class of committed instruction (Count)
system.cpu.commit.committedInstType_0::IntAlu     17563598      1.89%      3.77% # Class of committed instruction (Count)
system.cpu.commit.committedInstType_0::IntMult     17563598      1.89%      5.66% # Class of committed instruction (Count)
system.cpu.commit.committedInstType_0::IntDiv     17563598      1.89%      7.55% # Class of committed instruction (Count)
system.cpu.commit.committedInstType_0::FloatAdd     17563598      1.89%      9.43% # Class of committed instruction (Count)
system.cpu.commit.committedInstType_0::FloatCmp     17563598      1.89%     11.32% # Class of committed instruction (Count)
system.cpu.commit.committedInstType_0::FloatCvt     17563598      1.89%     13.21% # Class of committed instruction (Count)
system.cpu.commit.committedInstType_0::FloatMult     17563598      1.89%     15.09% # Class of committed instruction (Count)
system.cpu.commit.committedInstType_0::FloatMultAcc     17563598      1.89%     16.98% # Class of committed instruction (Count)
system.cpu.commit.committedInstType_0::FloatDiv     17563598      1.89%     18.87% # Class of committed instruction (Count)
system.cpu.commit.committedInstType_0::FloatMisc     17563598      1.89%     20.75% # Class of committed instruction (Count)
system.cpu.commit.committedInstType_0::FloatSqrt     17563598      1.89%     22.64% # Class of committed instruction (Count)
system.cpu.commit.committedInstType_0::SimdAdd     17563598      1.89%     24.53% # Class of committed instruction (Count)
system.cpu.commit.committedInstType_0::SimdAddAcc     17563598      1.89%     26.42% # Class of committed instruction (Count)
system.cpu.commit.committedInstType_0::SimdAlu     17563598      1.89%     28.30% # Class of committed instruction (Count)
system.cpu.commit.committedInstType_0::SimdCmp     17563598      1.89%     30.19% # Class of committed instruction (Count)
system.cpu.commit.committedInstType_0::SimdCvt     17563598      1.89%     32.08% # Class of committed instruction (Count)
system.cpu.commit.committedInstType_0::SimdMisc     17563598      1.89%     33.96% # Class of committed instruction (Count)
system.cpu.commit.committedInstType_0::SimdMult     17563598      1.89%     35.85% # Class of committed instruction (Count)
system.cpu.commit.committedInstType_0::SimdMultAcc     17563598      1.89%     37.74% # Class of committed instruction (Count)
system.cpu.commit.committedInstType_0::SimdShift     17563598      1.89%     39.62% # Class of committed instruction (Count)
system.cpu.commit.committedInstType_0::SimdShiftAcc     17563598      1.89%     41.51% # Class of committed instruction (Count)
system.cpu.commit.committedInstType_0::SimdDiv     17563598      1.89%     43.40% # Class of committed instruction (Count)
system.cpu.commit.committedInstType_0::SimdSqrt     17563598      1.89%     45.28% # Class of committed instruction (Count)
system.cpu.commit.committedInstType_0::SimdFloatAdd     17563598      1.89%     47.17% # Class of committed instruction (Count)
system.cpu.commit.committedInstType_0::SimdFloatAlu     17563598      1.89%     49.06% # Class of committed instruction (Count)
system.cpu.commit.committedInstType_0::SimdFloatCmp     17563598      1.89%     50.94% # Class of committed instruction (Count)
system.cpu.commit.committedInstType_0::SimdFloatCvt     17563598      1.89%     52.83% # Class of committed instruction (Count)
system.cpu.commit.committedInstType_0::SimdFloatDiv     17563598      1.89%     54.72% # Class of committed instruction (Count)
system.cpu.commit.committedInstType_0::SimdFloatMisc     17563598      1.89%     56.60% # Class of committed instruction (Count)
system.cpu.commit.committedInstType_0::SimdFloatMult     17563598      1.89%     58.49% # Class of committed instruction (Count)
system.cpu.commit.committedInstType_0::SimdFloatMultAcc     17563598      1.89%     60.38% # Class of committed instruction (Count)
system.cpu.commit.committedInstType_0::SimdFloatSqrt     17563598      1.89%     62.26% # Class of committed instruction (Count)
system.cpu.commit.committedInstType_0::SimdReduceAdd     17563598      1.89%     64.15% # Class of committed instruction (Count)
system.cpu.commit.committedInstType_0::SimdReduceAlu     17563598      1.89%     66.04% # Class of committed instruction (Count)
system.cpu.commit.committedInstType_0::SimdReduceCmp     17563598      1.89%     67.92% # Class of committed instruction (Count)
system.cpu.commit.committedInstType_0::SimdFloatReduceAdd     17563598      1.89%     69.81% # Class of committed instruction (Count)
system.cpu.commit.committedInstType_0::SimdFloatReduceCmp     17563598      1.89%     71.70% # Class of committed instruction (Count)
system.cpu.commit.committedInstType_0::SimdAes     17563598      1.89%     73.58% # Class of committed instruction (Count)
system.cpu.commit.committedInstType_0::SimdAesMix     17563598      1.89%     75.47% # Class of committed instruction (Count)
system.cpu.commit.committedInstType_0::SimdSha1Hash     17563598      1.89%     77.36% # Class of committed instruction (Count)
system.cpu.commit.committedInstType_0::SimdSha1Hash2     17563598      1.89%     79.25% # Class of committed instruction (Count)
system.cpu.commit.committedInstType_0::SimdSha256Hash     17563598      1.89%     81.13% # Class of committed instruction (Count)
system.cpu.commit.committedInstType_0::SimdSha256Hash2     17563598      1.89%     83.02% # Class of committed instruction (Count)
system.cpu.commit.committedInstType_0::SimdShaSigma2     17563598      1.89%     84.91% # Class of committed instruction (Count)
system.cpu.commit.committedInstType_0::SimdShaSigma3     17563598      1.89%     86.79% # Class of committed instruction (Count)
system.cpu.commit.committedInstType_0::SimdPredAlu     17563598      1.89%     88.68% # Class of committed instruction (Count)
system.cpu.commit.committedInstType_0::MemRead     17563598      1.89%     90.57% # Class of committed instruction (Count)
system.cpu.commit.committedInstType_0::MemWrite     17563598      1.89%     92.45% # Class of committed instruction (Count)
system.cpu.commit.committedInstType_0::FloatMemRead     17563598      1.89%     94.34% # Class of committed instruction (Count)
system.cpu.commit.committedInstType_0::FloatMemWrite     17563598      1.89%     96.23% # Class of committed instruction (Count)
system.cpu.commit.committedInstType_0::IprAccess     17563598      1.89%     98.11% # Class of committed instruction (Count)
system.cpu.commit.committedInstType_0::InstPrefetch     17563598      1.89%    100.00% # Class of committed instruction (Count)
system.cpu.commit.committedInstType_0::total    930870694                       # Class of committed instruction (Count)
system.cpu.commit.commitEligibleSamples        743143                       # number cycles where commit BW limit reached (Cycle)
system.cpu.dcache.demandHits::writebacks      5249797                       # number of demand (read+write) hits (Count)
system.cpu.dcache.demandHits::functional      5249797                       # number of demand (read+write) hits (Count)
system.cpu.dcache.demandHits::interrupt       5249797                       # number of demand (read+write) hits (Count)
system.cpu.dcache.demandHits::cpu.mmu.dtb_walker      5249797                       # number of demand (read+write) hits (Count)
system.cpu.dcache.demandHits::cpu.mmu.itb_walker      5249797                       # number of demand (read+write) hits (Count)
system.cpu.dcache.demandHits::cpu.mmu.stage2_dtb_walker      5249797                       # number of demand (read+write) hits (Count)
system.cpu.dcache.demandHits::cpu.mmu.stage2_itb_walker      5249797                       # number of demand (read+write) hits (Count)
system.cpu.dcache.demandHits::cpu.inst        5249797                       # number of demand (read+write) hits (Count)
system.cpu.dcache.demandHits::cpu.data        5249797                       # number of demand (read+write) hits (Count)
system.cpu.dcache.demandHits::l2cache.prefetcher      5249797                       # number of demand (read+write) hits (Count)
system.cpu.dcache.demandHits::total          52497970                       # number of demand (read+write) hits (Count)
system.cpu.dcache.overallHits::writebacks      5249797                       # number of overall hits (Count)
system.cpu.dcache.overallHits::functional      5249797                       # number of overall hits (Count)
system.cpu.dcache.overallHits::interrupt      5249797                       # number of overall hits (Count)
system.cpu.dcache.overallHits::cpu.mmu.dtb_walker      5249797                       # number of overall hits (Count)
system.cpu.dcache.overallHits::cpu.mmu.itb_walker      5249797                       # number of overall hits (Count)
system.cpu.dcache.overallHits::cpu.mmu.stage2_dtb_walker      5249797                       # number of overall hits (Count)
system.cpu.dcache.overallHits::cpu.mmu.stage2_itb_walker      5249797                       # number of overall hits (Count)
system.cpu.dcache.overallHits::cpu.inst       5249797                       # number of overall hits (Count)
system.cpu.dcache.overallHits::cpu.data       5249797                       # number of overall hits (Count)
system.cpu.dcache.overallHits::l2cache.prefetcher      5249797                       # number of overall hits (Count)
system.cpu.dcache.overallHits::total         52497970                       # number of overall hits (Count)
system.cpu.dcache.demandMisses::writebacks       274853                       # number of demand (read+write) misses (Count)
system.cpu.dcache.demandMisses::functional       274853                       # number of demand (read+write) misses (Count)
system.cpu.dcache.demandMisses::interrupt       274853                       # number of demand (read+write) misses (Count)
system.cpu.dcache.demandMisses::cpu.mmu.dtb_walker       274853                       # number of demand (read+write) misses (Count)
system.cpu.dcache.demandMisses::cpu.mmu.itb_walker       274853                       # number of demand (read+write) misses (Count)
system.cpu.dcache.demandMisses::cpu.mmu.stage2_dtb_walker       274853                       # number of demand (read+write) misses (Count)
system.cpu.dcache.demandMisses::cpu.mmu.stage2_itb_walker       274853                       # number of demand (read+write) misses (Count)
system.cpu.dcache.demandMisses::cpu.inst       274853                       # number of demand (read+write) misses (Count)
system.cpu.dcache.demandMisses::cpu.data       274853                       # number of demand (read+write) misses (Count)
system.cpu.dcache.demandMisses::l2cache.prefetcher       274853                       # number of demand (read+write) misses (Count)
system.cpu.dcache.demandMisses::total         2748530                       # number of demand (read+write) misses (Count)
system.cpu.dcache.overallMisses::writebacks       274853                       # number of overall misses (Count)
system.cpu.dcache.overallMisses::functional       274853                       # number of overall misses (Count)
system.cpu.dcache.overallMisses::interrupt       274853                       # number of overall misses (Count)
system.cpu.dcache.overallMisses::cpu.mmu.dtb_walker       274853                       # number of overall misses (Count)
system.cpu.dcache.overallMisses::cpu.mmu.itb_walker       274853                       # number of overall misses (Count)
system.cpu.dcache.overallMisses::cpu.mmu.stage2_dtb_walker       274853                       # number of overall misses (Count)
system.cpu.dcache.overallMisses::cpu.mmu.stage2_itb_walker       274853                       # number of overall misses (Count)
system.cpu.dcache.overallMisses::cpu.inst       274853                       # number of overall misses (Count)
system.cpu.dcache.overallMisses::cpu.data       274853                       # number of overall misses (Count)
system.cpu.dcache.overallMisses::l2cache.prefetcher       274853                       # number of overall misses (Count)
system.cpu.dcache.overallMisses::total        2748530                       # number of overall misses (Count)
system.cpu.dcache.demandMissLatency::writebacks   8306740136                       # number of demand (read+write) miss ticks (Tick)
system.cpu.dcache.demandMissLatency::functional   8306740136                       # number of demand (read+write) miss ticks (Tick)
system.cpu.dcache.demandMissLatency::interrupt   8306740136                       # number of demand (read+write) miss ticks (Tick)
system.cpu.dcache.demandMissLatency::cpu.mmu.dtb_walker   8306740136                       # number of demand (read+write) miss ticks (Tick)
system.cpu.dcache.demandMissLatency::cpu.mmu.itb_walker   8306740136                       # number of demand (read+write) miss ticks (Tick)
system.cpu.dcache.demandMissLatency::cpu.mmu.stage2_dtb_walker   8306740136                       # number of demand (read+write) miss ticks (Tick)
system.cpu.dcache.demandMissLatency::cpu.mmu.stage2_itb_walker   8306740136                       # number of demand (read+write) miss ticks (Tick)
system.cpu.dcache.demandMissLatency::cpu.inst   8306740136                       # number of demand (read+write) miss ticks (Tick)
system.cpu.dcache.demandMissLatency::cpu.data   8306740136                       # number of demand (read+write) miss ticks (Tick)
system.cpu.dcache.demandMissLatency::l2cache.prefetcher   8306740136                       # number of demand (read+write) miss ticks (Tick)
system.cpu.dcache.demandMissLatency::total  83067401360                       # number of demand (read+write) miss ticks (Tick)
system.cpu.dcache.overallMissLatency::writebacks   8306740136                       # number of overall miss ticks (Tick)
system.cpu.dcache.overallMissLatency::functional   8306740136                       # number of overall miss ticks (Tick)
system.cpu.dcache.overallMissLatency::interrupt   8306740136                       # number of overall miss ticks (Tick)
system.cpu.dcache.overallMissLatency::cpu.mmu.dtb_walker   8306740136                       # number of overall miss ticks (Tick)
system.cpu.dcache.overallMissLatency::cpu.mmu.itb_walker   8306740136                       # number of overall miss ticks (Tick)
system.cpu.dcache.overallMissLatency::cpu.mmu.stage2_dtb_walker   8306740136                       # number of overall miss ticks (Tick)
system.cpu.dcache.overallMissLatency::cpu.mmu.stage2_itb_walker   8306740136                       # number of overall miss ticks (Tick)
system.cpu.dcache.overallMissLatency::cpu.inst   8306740136                       # number of overall miss ticks (Tick)
system.cpu.dcache.overallMissLatency::cpu.data   8306740136                       # number of overall miss ticks (Tick)
system.cpu.dcache.overallMissLatency::l2cache.prefetcher   8306740136                       # number of overall miss ticks (Tick)
system.cpu.dcache.overallMissLatency::total  83067401360                       # number of overall miss ticks (Tick)
system.cpu.dcache.demandAccesses::writebacks      5524650                       # number of demand (read+write) accesses (Count)
system.cpu.dcache.demandAccesses::functional      5524650                       # number of demand (read+write) accesses (Count)
system.cpu.dcache.demandAccesses::interrupt      5524650                       # number of demand (read+write) accesses (Count)
system.cpu.dcache.demandAccesses::cpu.mmu.dtb_walker      5524650                       # number of demand (read+write) accesses (Count)
system.cpu.dcache.demandAccesses::cpu.mmu.itb_walker      5524650                       # number of demand (read+write) accesses (Count)
system.cpu.dcache.demandAccesses::cpu.mmu.stage2_dtb_walker      5524650                       # number of demand (read+write) accesses (Count)
system.cpu.dcache.demandAccesses::cpu.mmu.stage2_itb_walker      5524650                       # number of demand (read+write) accesses (Count)
system.cpu.dcache.demandAccesses::cpu.inst      5524650                       # number of demand (read+write) accesses (Count)
system.cpu.dcache.demandAccesses::cpu.data      5524650                       # number of demand (read+write) accesses (Count)
system.cpu.dcache.demandAccesses::l2cache.prefetcher      5524650                       # number of demand (read+write) accesses (Count)
system.cpu.dcache.demandAccesses::total      55246500                       # number of demand (read+write) accesses (Count)
system.cpu.dcache.overallAccesses::writebacks      5524650                       # number of overall (read+write) accesses (Count)
system.cpu.dcache.overallAccesses::functional      5524650                       # number of overall (read+write) accesses (Count)
system.cpu.dcache.overallAccesses::interrupt      5524650                       # number of overall (read+write) accesses (Count)
system.cpu.dcache.overallAccesses::cpu.mmu.dtb_walker      5524650                       # number of overall (read+write) accesses (Count)
system.cpu.dcache.overallAccesses::cpu.mmu.itb_walker      5524650                       # number of overall (read+write) accesses (Count)
system.cpu.dcache.overallAccesses::cpu.mmu.stage2_dtb_walker      5524650                       # number of overall (read+write) accesses (Count)
system.cpu.dcache.overallAccesses::cpu.mmu.stage2_itb_walker      5524650                       # number of overall (read+write) accesses (Count)
system.cpu.dcache.overallAccesses::cpu.inst      5524650                       # number of overall (read+write) accesses (Count)
system.cpu.dcache.overallAccesses::cpu.data      5524650                       # number of overall (read+write) accesses (Count)
system.cpu.dcache.overallAccesses::l2cache.prefetcher      5524650                       # number of overall (read+write) accesses (Count)
system.cpu.dcache.overallAccesses::total     55246500                       # number of overall (read+write) accesses (Count)
system.cpu.dcache.demandMissRate::writebacks     0.049750                       # miss rate for demand accesses (Ratio)
system.cpu.dcache.demandMissRate::functional     0.049750                       # miss rate for demand accesses (Ratio)
system.cpu.dcache.demandMissRate::interrupt     0.049750                       # miss rate for demand accesses (Ratio)
system.cpu.dcache.demandMissRate::cpu.mmu.dtb_walker     0.049750                       # miss rate for demand accesses (Ratio)
system.cpu.dcache.demandMissRate::cpu.mmu.itb_walker     0.049750                       # miss rate for demand accesses (Ratio)
system.cpu.dcache.demandMissRate::cpu.mmu.stage2_dtb_walker     0.049750                       # miss rate for demand accesses (Ratio)
system.cpu.dcache.demandMissRate::cpu.mmu.stage2_itb_walker     0.049750                       # miss rate for demand accesses (Ratio)
system.cpu.dcache.demandMissRate::cpu.inst     0.049750                       # miss rate for demand accesses (Ratio)
system.cpu.dcache.demandMissRate::cpu.data     0.049750                       # miss rate for demand accesses (Ratio)
system.cpu.dcache.demandMissRate::l2cache.prefetcher     0.049750                       # miss rate for demand accesses (Ratio)
system.cpu.dcache.demandMissRate::total      0.049750                       # miss rate for demand accesses (Ratio)
system.cpu.dcache.overallMissRate::writebacks     0.049750                       # miss rate for overall accesses (Ratio)
system.cpu.dcache.overallMissRate::functional     0.049750                       # miss rate for overall accesses (Ratio)
system.cpu.dcache.overallMissRate::interrupt     0.049750                       # miss rate for overall accesses (Ratio)
system.cpu.dcache.overallMissRate::cpu.mmu.dtb_walker     0.049750                       # miss rate for overall accesses (Ratio)
system.cpu.dcache.overallMissRate::cpu.mmu.itb_walker     0.049750                       # miss rate for overall accesses (Ratio)
system.cpu.dcache.overallMissRate::cpu.mmu.stage2_dtb_walker     0.049750                       # miss rate for overall accesses (Ratio)
system.cpu.dcache.overallMissRate::cpu.mmu.stage2_itb_walker     0.049750                       # miss rate for overall accesses (Ratio)
system.cpu.dcache.overallMissRate::cpu.inst     0.049750                       # miss rate for overall accesses (Ratio)
system.cpu.dcache.overallMissRate::cpu.data     0.049750                       # miss rate for overall accesses (Ratio)
system.cpu.dcache.overallMissRate::l2cache.prefetcher     0.049750                       # miss rate for overall accesses (Ratio)
system.cpu.dcache.overallMissRate::total     0.049750                       # miss rate for overall accesses (Ratio)
system.cpu.dcache.demandAvgMissLatency::writebacks 30222.483058                       # average overall miss latency ((Cycle/Count))
system.cpu.dcache.demandAvgMissLatency::functional 30222.483058                       # average overall miss latency ((Cycle/Count))
system.cpu.dcache.demandAvgMissLatency::interrupt 30222.483058                       # average overall miss latency ((Cycle/Count))
system.cpu.dcache.demandAvgMissLatency::cpu.mmu.dtb_walker 30222.483058                       # average overall miss latency ((Cycle/Count))
system.cpu.dcache.demandAvgMissLatency::cpu.mmu.itb_walker 30222.483058                       # average overall miss latency ((Cycle/Count))
system.cpu.dcache.demandAvgMissLatency::cpu.mmu.stage2_dtb_walker 30222.483058                       # average overall miss latency ((Cycle/Count))
system.cpu.dcache.demandAvgMissLatency::cpu.mmu.stage2_itb_walker 30222.483058                       # average overall miss latency ((Cycle/Count))
system.cpu.dcache.demandAvgMissLatency::cpu.inst 30222.483058                       # average overall miss latency ((Cycle/Count))
system.cpu.dcache.demandAvgMissLatency::cpu.data 30222.483058                       # average overall miss latency ((Cycle/Count))
system.cpu.dcache.demandAvgMissLatency::l2cache.prefetcher 30222.483058                       # average overall miss latency ((Cycle/Count))
system.cpu.dcache.demandAvgMissLatency::total 30222.483058                       # average overall miss latency ((Cycle/Count))
system.cpu.dcache.overallAvgMissLatency::writebacks 30222.483058                       # average overall miss latency ((Cycle/Count))
system.cpu.dcache.overallAvgMissLatency::functional 30222.483058                       # average overall miss latency ((Cycle/Count))
system.cpu.dcache.overallAvgMissLatency::interrupt 30222.483058                       # average overall miss latency ((Cycle/Count))
system.cpu.dcache.overallAvgMissLatency::cpu.mmu.dtb_walker 30222.483058                       # average overall miss latency ((Cycle/Count))
system.cpu.dcache.overallAvgMissLatency::cpu.mmu.itb_walker 30222.483058                       # average overall miss latency ((Cycle/Count))
system.cpu.dcache.overallAvgMissLatency::cpu.mmu.stage2_dtb_walker 30222.483058                       # average overall miss latency ((Cycle/Count))
system.cpu.dcache.overallAvgMissLatency::cpu.mmu.stage2_itb_walker 30222.483058                       # average overall miss latency ((Cycle/Count))
system.cpu.dcache.overallAvgMissLatency::cpu.inst 30222.483058                       # average overall miss latency ((Cycle/Count))
system.cpu.dcache.overallAvgMissLatency::cpu.data 30222.483058                       # average overall miss latency ((Cycle/Count))
system.cpu.dcache.overallAvgMissLatency::l2cache.prefetcher 30222.483058                       # average overall miss latency ((Cycle/Count))
system.cpu.dcache.overallAvgMissLatency::total 30222.483058                       # average overall miss latency ((Cycle/Count))
system.cpu.dcache.blockedCycles::no_mshrs        84500                       # number of cycles access was blocked (Cycle)
system.cpu.dcache.blockedCycles::no_targets        84500                       # number of cycles access was blocked (Cycle)
system.cpu.dcache.blockedCauses::no_mshrs         5516                       # number of times access was blocked (Count)
system.cpu.dcache.blockedCauses::no_targets         5516                       # number of times access was blocked (Count)
system.cpu.dcache.avgBlocked::no_mshrs      15.319072                       # average number of cycles each access was blocked ((Cycle/Count))
system.cpu.dcache.avgBlocked::no_targets    15.319072                       # average number of cycles each access was blocked ((Cycle/Count))
system.cpu.dcache.writebacks::writebacks       148592                       # number of writebacks (Count)
system.cpu.dcache.writebacks::functional       148592                       # number of writebacks (Count)
system.cpu.dcache.writebacks::interrupt        148592                       # number of writebacks (Count)
system.cpu.dcache.writebacks::cpu.mmu.dtb_walker       148592                       # number of writebacks (Count)
system.cpu.dcache.writebacks::cpu.mmu.itb_walker       148592                       # number of writebacks (Count)
system.cpu.dcache.writebacks::cpu.mmu.stage2_dtb_walker       148592                       # number of writebacks (Count)
system.cpu.dcache.writebacks::cpu.mmu.stage2_itb_walker       148592                       # number of writebacks (Count)
system.cpu.dcache.writebacks::cpu.inst         148592                       # number of writebacks (Count)
system.cpu.dcache.writebacks::cpu.data         148592                       # number of writebacks (Count)
system.cpu.dcache.writebacks::l2cache.prefetcher       148592                       # number of writebacks (Count)
system.cpu.dcache.writebacks::total           1485920                       # number of writebacks (Count)
system.cpu.dcache.demandMshrHits::writebacks       125753                       # number of demand (read+write) MSHR hits (Count)
system.cpu.dcache.demandMshrHits::functional       125753                       # number of demand (read+write) MSHR hits (Count)
system.cpu.dcache.demandMshrHits::interrupt       125753                       # number of demand (read+write) MSHR hits (Count)
system.cpu.dcache.demandMshrHits::cpu.mmu.dtb_walker       125753                       # number of demand (read+write) MSHR hits (Count)
system.cpu.dcache.demandMshrHits::cpu.mmu.itb_walker       125753                       # number of demand (read+write) MSHR hits (Count)
system.cpu.dcache.demandMshrHits::cpu.mmu.stage2_dtb_walker       125753                       # number of demand (read+write) MSHR hits (Count)
system.cpu.dcache.demandMshrHits::cpu.mmu.stage2_itb_walker       125753                       # number of demand (read+write) MSHR hits (Count)
system.cpu.dcache.demandMshrHits::cpu.inst       125753                       # number of demand (read+write) MSHR hits (Count)
system.cpu.dcache.demandMshrHits::cpu.data       125753                       # number of demand (read+write) MSHR hits (Count)
system.cpu.dcache.demandMshrHits::l2cache.prefetcher       125753                       # number of demand (read+write) MSHR hits (Count)
system.cpu.dcache.demandMshrHits::total       1257530                       # number of demand (read+write) MSHR hits (Count)
system.cpu.dcache.overallMshrHits::writebacks       125753                       # number of overall MSHR hits (Count)
system.cpu.dcache.overallMshrHits::functional       125753                       # number of overall MSHR hits (Count)
system.cpu.dcache.overallMshrHits::interrupt       125753                       # number of overall MSHR hits (Count)
system.cpu.dcache.overallMshrHits::cpu.mmu.dtb_walker       125753                       # number of overall MSHR hits (Count)
system.cpu.dcache.overallMshrHits::cpu.mmu.itb_walker       125753                       # number of overall MSHR hits (Count)
system.cpu.dcache.overallMshrHits::cpu.mmu.stage2_dtb_walker       125753                       # number of overall MSHR hits (Count)
system.cpu.dcache.overallMshrHits::cpu.mmu.stage2_itb_walker       125753                       # number of overall MSHR hits (Count)
system.cpu.dcache.overallMshrHits::cpu.inst       125753                       # number of overall MSHR hits (Count)
system.cpu.dcache.overallMshrHits::cpu.data       125753                       # number of overall MSHR hits (Count)
system.cpu.dcache.overallMshrHits::l2cache.prefetcher       125753                       # number of overall MSHR hits (Count)
system.cpu.dcache.overallMshrHits::total      1257530                       # number of overall MSHR hits (Count)
system.cpu.dcache.demandMshrMisses::writebacks       149100                       # number of demand (read+write) MSHR misses (Count)
system.cpu.dcache.demandMshrMisses::functional       149100                       # number of demand (read+write) MSHR misses (Count)
system.cpu.dcache.demandMshrMisses::interrupt       149100                       # number of demand (read+write) MSHR misses (Count)
system.cpu.dcache.demandMshrMisses::cpu.mmu.dtb_walker       149100                       # number of demand (read+write) MSHR misses (Count)
system.cpu.dcache.demandMshrMisses::cpu.mmu.itb_walker       149100                       # number of demand (read+write) MSHR misses (Count)
system.cpu.dcache.demandMshrMisses::cpu.mmu.stage2_dtb_walker       149100                       # number of demand (read+write) MSHR misses (Count)
system.cpu.dcache.demandMshrMisses::cpu.mmu.stage2_itb_walker       149100                       # number of demand (read+write) MSHR misses (Count)
system.cpu.dcache.demandMshrMisses::cpu.inst       149100                       # number of demand (read+write) MSHR misses (Count)
system.cpu.dcache.demandMshrMisses::cpu.data       149100                       # number of demand (read+write) MSHR misses (Count)
system.cpu.dcache.demandMshrMisses::l2cache.prefetcher       149100                       # number of demand (read+write) MSHR misses (Count)
system.cpu.dcache.demandMshrMisses::total      1491000                       # number of demand (read+write) MSHR misses (Count)
system.cpu.dcache.overallMshrMisses::writebacks       149100                       # number of overall MSHR misses (Count)
system.cpu.dcache.overallMshrMisses::functional       149100                       # number of overall MSHR misses (Count)
system.cpu.dcache.overallMshrMisses::interrupt       149100                       # number of overall MSHR misses (Count)
system.cpu.dcache.overallMshrMisses::cpu.mmu.dtb_walker       149100                       # number of overall MSHR misses (Count)
system.cpu.dcache.overallMshrMisses::cpu.mmu.itb_walker       149100                       # number of overall MSHR misses (Count)
system.cpu.dcache.overallMshrMisses::cpu.mmu.stage2_dtb_walker       149100                       # number of overall MSHR misses (Count)
system.cpu.dcache.overallMshrMisses::cpu.mmu.stage2_itb_walker       149100                       # number of overall MSHR misses (Count)
system.cpu.dcache.overallMshrMisses::cpu.inst       149100                       # number of overall MSHR misses (Count)
system.cpu.dcache.overallMshrMisses::cpu.data       149100                       # number of overall MSHR misses (Count)
system.cpu.dcache.overallMshrMisses::l2cache.prefetcher       149100                       # number of overall MSHR misses (Count)
system.cpu.dcache.overallMshrMisses::total      1491000                       # number of overall MSHR misses (Count)
system.cpu.dcache.demandMshrMissLatency::writebacks   3733817097                       # number of demand (read+write) MSHR miss ticks (Tick)
system.cpu.dcache.demandMshrMissLatency::functional   3733817097                       # number of demand (read+write) MSHR miss ticks (Tick)
system.cpu.dcache.demandMshrMissLatency::interrupt   3733817097                       # number of demand (read+write) MSHR miss ticks (Tick)
system.cpu.dcache.demandMshrMissLatency::cpu.mmu.dtb_walker   3733817097                       # number of demand (read+write) MSHR miss ticks (Tick)
system.cpu.dcache.demandMshrMissLatency::cpu.mmu.itb_walker   3733817097                       # number of demand (read+write) MSHR miss ticks (Tick)
system.cpu.dcache.demandMshrMissLatency::cpu.mmu.stage2_dtb_walker   3733817097                       # number of demand (read+write) MSHR miss ticks (Tick)
system.cpu.dcache.demandMshrMissLatency::cpu.mmu.stage2_itb_walker   3733817097                       # number of demand (read+write) MSHR miss ticks (Tick)
system.cpu.dcache.demandMshrMissLatency::cpu.inst   3733817097                       # number of demand (read+write) MSHR miss ticks (Tick)
system.cpu.dcache.demandMshrMissLatency::cpu.data   3733817097                       # number of demand (read+write) MSHR miss ticks (Tick)
system.cpu.dcache.demandMshrMissLatency::l2cache.prefetcher   3733817097                       # number of demand (read+write) MSHR miss ticks (Tick)
system.cpu.dcache.demandMshrMissLatency::total  37338170970                       # number of demand (read+write) MSHR miss ticks (Tick)
system.cpu.dcache.overallMshrMissLatency::writebacks   3733817097                       # number of overall MSHR miss ticks (Tick)
system.cpu.dcache.overallMshrMissLatency::functional   3733817097                       # number of overall MSHR miss ticks (Tick)
system.cpu.dcache.overallMshrMissLatency::interrupt   3733817097                       # number of overall MSHR miss ticks (Tick)
system.cpu.dcache.overallMshrMissLatency::cpu.mmu.dtb_walker   3733817097                       # number of overall MSHR miss ticks (Tick)
system.cpu.dcache.overallMshrMissLatency::cpu.mmu.itb_walker   3733817097                       # number of overall MSHR miss ticks (Tick)
system.cpu.dcache.overallMshrMissLatency::cpu.mmu.stage2_dtb_walker   3733817097                       # number of overall MSHR miss ticks (Tick)
system.cpu.dcache.overallMshrMissLatency::cpu.mmu.stage2_itb_walker   3733817097                       # number of overall MSHR miss ticks (Tick)
system.cpu.dcache.overallMshrMissLatency::cpu.inst   3733817097                       # number of overall MSHR miss ticks (Tick)
system.cpu.dcache.overallMshrMissLatency::cpu.data   3733817097                       # number of overall MSHR miss ticks (Tick)
system.cpu.dcache.overallMshrMissLatency::l2cache.prefetcher   3733817097                       # number of overall MSHR miss ticks (Tick)
system.cpu.dcache.overallMshrMissLatency::total  37338170970                       # number of overall MSHR miss ticks (Tick)
system.cpu.dcache.demandMshrMissRate::writebacks     0.026988                       # mshr miss ratio for demand accesses (Ratio)
system.cpu.dcache.demandMshrMissRate::functional     0.026988                       # mshr miss ratio for demand accesses (Ratio)
system.cpu.dcache.demandMshrMissRate::interrupt     0.026988                       # mshr miss ratio for demand accesses (Ratio)
system.cpu.dcache.demandMshrMissRate::cpu.mmu.dtb_walker     0.026988                       # mshr miss ratio for demand accesses (Ratio)
system.cpu.dcache.demandMshrMissRate::cpu.mmu.itb_walker     0.026988                       # mshr miss ratio for demand accesses (Ratio)
system.cpu.dcache.demandMshrMissRate::cpu.mmu.stage2_dtb_walker     0.026988                       # mshr miss ratio for demand accesses (Ratio)
system.cpu.dcache.demandMshrMissRate::cpu.mmu.stage2_itb_walker     0.026988                       # mshr miss ratio for demand accesses (Ratio)
system.cpu.dcache.demandMshrMissRate::cpu.inst     0.026988                       # mshr miss ratio for demand accesses (Ratio)
system.cpu.dcache.demandMshrMissRate::cpu.data     0.026988                       # mshr miss ratio for demand accesses (Ratio)
system.cpu.dcache.demandMshrMissRate::l2cache.prefetcher     0.026988                       # mshr miss ratio for demand accesses (Ratio)
system.cpu.dcache.demandMshrMissRate::total     0.026988                       # mshr miss ratio for demand accesses (Ratio)
system.cpu.dcache.overallMshrMissRate::writebacks     0.026988                       # mshr miss ratio for overall accesses (Ratio)
system.cpu.dcache.overallMshrMissRate::functional     0.026988                       # mshr miss ratio for overall accesses (Ratio)
system.cpu.dcache.overallMshrMissRate::interrupt     0.026988                       # mshr miss ratio for overall accesses (Ratio)
system.cpu.dcache.overallMshrMissRate::cpu.mmu.dtb_walker     0.026988                       # mshr miss ratio for overall accesses (Ratio)
system.cpu.dcache.overallMshrMissRate::cpu.mmu.itb_walker     0.026988                       # mshr miss ratio for overall accesses (Ratio)
system.cpu.dcache.overallMshrMissRate::cpu.mmu.stage2_dtb_walker     0.026988                       # mshr miss ratio for overall accesses (Ratio)
system.cpu.dcache.overallMshrMissRate::cpu.mmu.stage2_itb_walker     0.026988                       # mshr miss ratio for overall accesses (Ratio)
system.cpu.dcache.overallMshrMissRate::cpu.inst     0.026988                       # mshr miss ratio for overall accesses (Ratio)
system.cpu.dcache.overallMshrMissRate::cpu.data     0.026988                       # mshr miss ratio for overall accesses (Ratio)
system.cpu.dcache.overallMshrMissRate::l2cache.prefetcher     0.026988                       # mshr miss ratio for overall accesses (Ratio)
system.cpu.dcache.overallMshrMissRate::total     0.026988                       # mshr miss ratio for overall accesses (Ratio)
system.cpu.dcache.demandAvgMshrMissLatency::writebacks 25042.368189                       # average overall mshr miss latency ((Cycle/Count))
system.cpu.dcache.demandAvgMshrMissLatency::functional 25042.368189                       # average overall mshr miss latency ((Cycle/Count))
system.cpu.dcache.demandAvgMshrMissLatency::interrupt 25042.368189                       # average overall mshr miss latency ((Cycle/Count))
system.cpu.dcache.demandAvgMshrMissLatency::cpu.mmu.dtb_walker 25042.368189                       # average overall mshr miss latency ((Cycle/Count))
system.cpu.dcache.demandAvgMshrMissLatency::cpu.mmu.itb_walker 25042.368189                       # average overall mshr miss latency ((Cycle/Count))
system.cpu.dcache.demandAvgMshrMissLatency::cpu.mmu.stage2_dtb_walker 25042.368189                       # average overall mshr miss latency ((Cycle/Count))
system.cpu.dcache.demandAvgMshrMissLatency::cpu.mmu.stage2_itb_walker 25042.368189                       # average overall mshr miss latency ((Cycle/Count))
system.cpu.dcache.demandAvgMshrMissLatency::cpu.inst 25042.368189                       # average overall mshr miss latency ((Cycle/Count))
system.cpu.dcache.demandAvgMshrMissLatency::cpu.data 25042.368189                       # average overall mshr miss latency ((Cycle/Count))
system.cpu.dcache.demandAvgMshrMissLatency::l2cache.prefetcher 25042.368189                       # average overall mshr miss latency ((Cycle/Count))
system.cpu.dcache.demandAvgMshrMissLatency::total 25042.368189                       # average overall mshr miss latency ((Cycle/Count))
system.cpu.dcache.overallAvgMshrMissLatency::writebacks 25042.368189                       # average overall mshr miss latency ((Cycle/Count))
system.cpu.dcache.overallAvgMshrMissLatency::functional 25042.368189                       # average overall mshr miss latency ((Cycle/Count))
system.cpu.dcache.overallAvgMshrMissLatency::interrupt 25042.368189                       # average overall mshr miss latency ((Cycle/Count))
system.cpu.dcache.overallAvgMshrMissLatency::cpu.mmu.dtb_walker 25042.368189                       # average overall mshr miss latency ((Cycle/Count))
system.cpu.dcache.overallAvgMshrMissLatency::cpu.mmu.itb_walker 25042.368189                       # average overall mshr miss latency ((Cycle/Count))
system.cpu.dcache.overallAvgMshrMissLatency::cpu.mmu.stage2_dtb_walker 25042.368189                       # average overall mshr miss latency ((Cycle/Count))
system.cpu.dcache.overallAvgMshrMissLatency::cpu.mmu.stage2_itb_walker 25042.368189                       # average overall mshr miss latency ((Cycle/Count))
system.cpu.dcache.overallAvgMshrMissLatency::cpu.inst 25042.368189                       # average overall mshr miss latency ((Cycle/Count))
system.cpu.dcache.overallAvgMshrMissLatency::cpu.data 25042.368189                       # average overall mshr miss latency ((Cycle/Count))
system.cpu.dcache.overallAvgMshrMissLatency::l2cache.prefetcher 25042.368189                       # average overall mshr miss latency ((Cycle/Count))
system.cpu.dcache.overallAvgMshrMissLatency::total 25042.368189                       # average overall mshr miss latency ((Cycle/Count))
system.cpu.dcache.replacements                 148592                       # number of replacements (Count)
system.cpu.dcache.LoadLockedReq.hits::writebacks            4                       # number of LoadLockedReq hits (Count)
system.cpu.dcache.LoadLockedReq.hits::functional            4                       # number of LoadLockedReq hits (Count)
system.cpu.dcache.LoadLockedReq.hits::interrupt            4                       # number of LoadLockedReq hits (Count)
system.cpu.dcache.LoadLockedReq.hits::cpu.mmu.dtb_walker            4                       # number of LoadLockedReq hits (Count)
system.cpu.dcache.LoadLockedReq.hits::cpu.mmu.itb_walker            4                       # number of LoadLockedReq hits (Count)
system.cpu.dcache.LoadLockedReq.hits::cpu.mmu.stage2_dtb_walker            4                       # number of LoadLockedReq hits (Count)
system.cpu.dcache.LoadLockedReq.hits::cpu.mmu.stage2_itb_walker            4                       # number of LoadLockedReq hits (Count)
system.cpu.dcache.LoadLockedReq.hits::cpu.inst            4                       # number of LoadLockedReq hits (Count)
system.cpu.dcache.LoadLockedReq.hits::cpu.data            4                       # number of LoadLockedReq hits (Count)
system.cpu.dcache.LoadLockedReq.hits::l2cache.prefetcher            4                       # number of LoadLockedReq hits (Count)
system.cpu.dcache.LoadLockedReq.hits::total           40                       # number of LoadLockedReq hits (Count)
system.cpu.dcache.LoadLockedReq.misses::writebacks            1                       # number of LoadLockedReq misses (Count)
system.cpu.dcache.LoadLockedReq.misses::functional            1                       # number of LoadLockedReq misses (Count)
system.cpu.dcache.LoadLockedReq.misses::interrupt            1                       # number of LoadLockedReq misses (Count)
system.cpu.dcache.LoadLockedReq.misses::cpu.mmu.dtb_walker            1                       # number of LoadLockedReq misses (Count)
system.cpu.dcache.LoadLockedReq.misses::cpu.mmu.itb_walker            1                       # number of LoadLockedReq misses (Count)
system.cpu.dcache.LoadLockedReq.misses::cpu.mmu.stage2_dtb_walker            1                       # number of LoadLockedReq misses (Count)
system.cpu.dcache.LoadLockedReq.misses::cpu.mmu.stage2_itb_walker            1                       # number of LoadLockedReq misses (Count)
system.cpu.dcache.LoadLockedReq.misses::cpu.inst            1                       # number of LoadLockedReq misses (Count)
system.cpu.dcache.LoadLockedReq.misses::cpu.data            1                       # number of LoadLockedReq misses (Count)
system.cpu.dcache.LoadLockedReq.misses::l2cache.prefetcher            1                       # number of LoadLockedReq misses (Count)
system.cpu.dcache.LoadLockedReq.misses::total           10                       # number of LoadLockedReq misses (Count)
system.cpu.dcache.LoadLockedReq.missLatency::writebacks        76440                       # number of LoadLockedReq miss ticks (Tick)
system.cpu.dcache.LoadLockedReq.missLatency::functional        76440                       # number of LoadLockedReq miss ticks (Tick)
system.cpu.dcache.LoadLockedReq.missLatency::interrupt        76440                       # number of LoadLockedReq miss ticks (Tick)
system.cpu.dcache.LoadLockedReq.missLatency::cpu.mmu.dtb_walker        76440                       # number of LoadLockedReq miss ticks (Tick)
system.cpu.dcache.LoadLockedReq.missLatency::cpu.mmu.itb_walker        76440                       # number of LoadLockedReq miss ticks (Tick)
system.cpu.dcache.LoadLockedReq.missLatency::cpu.mmu.stage2_dtb_walker        76440                       # number of LoadLockedReq miss ticks (Tick)
system.cpu.dcache.LoadLockedReq.missLatency::cpu.mmu.stage2_itb_walker        76440                       # number of LoadLockedReq miss ticks (Tick)
system.cpu.dcache.LoadLockedReq.missLatency::cpu.inst        76440                       # number of LoadLockedReq miss ticks (Tick)
system.cpu.dcache.LoadLockedReq.missLatency::cpu.data        76440                       # number of LoadLockedReq miss ticks (Tick)
system.cpu.dcache.LoadLockedReq.missLatency::l2cache.prefetcher        76440                       # number of LoadLockedReq miss ticks (Tick)
[...]
system.mem_ctrl.dram.bytesPerActivate::samples        35578                       # Bytes accessed per row activation (Byte)
system.mem_ctrl.dram.bytesPerActivate::mean   125.107426                       # Bytes accessed per row activation (Byte)
system.mem_ctrl.dram.bytesPerActivate::gmean    93.484240                       # Bytes accessed per row activation (Byte)
system.mem_ctrl.dram.bytesPerActivate::stdev   160.686817                       # Bytes accessed per row activation (Byte)
system.mem_ctrl.dram.bytesPerActivate::0-127        22570     63.44%     63.44% # Bytes accessed per row activation (Byte)
system.mem_ctrl.dram.bytesPerActivate::128-255        10533     29.61%     93.04% # Bytes accessed per row activation (Byte)
system.mem_ctrl.dram.bytesPerActivate::256-383          899      2.53%     95.57% # Bytes accessed per row activation (Byte)
system.mem_ctrl.dram.bytesPerActivate::384-511          265      0.74%     96.32% # Bytes accessed per row activation (Byte)
system.mem_ctrl.dram.bytesPerActivate::512-639          187      0.53%     96.84% # Bytes accessed per row activation (Byte)
system.mem_ctrl.dram.bytesPerActivate::640-767          176      0.49%     97.34% # Bytes accessed per row activation (Byte)
system.mem_ctrl.dram.bytesPerActivate::768-895          139      0.39%     97.73% # Bytes accessed per row activation (Byte)
system.mem_ctrl.dram.bytesPerActivate::896-1023          127      0.36%     98.08% # Bytes accessed per row activation (Byte)
system.mem_ctrl.dram.bytesPerActivate::1024-1151          682      1.92%    100.00% # Bytes accessed per row activation (Byte)
system.mem_ctrl.dram.bytesPerActivate::total        35578                       # Bytes accessed per row activation (Byte)
system.mem_ctrl.dram.bytesRead                2990528                       # Total number of bytes read from DRAM (Byte)
system.mem_ctrl.dram.bytesWritten             1461248                       # Total number of bytes written to DRAM (Byte)
system.mem_ctrl.dram.avgRdBW               340.452882                       # Average DRAM read bandwidth in MiBytes/s ((Byte/Second))
system.mem_ctrl.dram.avgWrBW               166.353932                       # Average DRAM write bandwidth in MiBytes/s ((Byte/Second))
system.mem_ctrl.dram.peakBW                  12800.00                       # Theoretical peak bandwidth in MiByte/s ((Byte/Second))
system.mem_ctrl.dram.busUtil                     3.96                       # Data bus utilization in percentage (Ratio)
system.mem_ctrl.dram.busUtilRead                 2.66                       # Data bus utilization in percentage for reads (Ratio)
system.mem_ctrl.dram.busUtilWrite                1.30                       # Data bus utilization in percentage for writes (Ratio)
system.mem_ctrl.dram.pageHitRate                48.85                       # Row buffer hit rate, read and write combined (Ratio)
system.mem_ctrl.dram.power_state.pwrStateResidencyTicks::UNDEFINED   8783970300                       # Cumulative time (in ticks) in various power states (Tick)
system.mem_ctrl.dram.power_state.pwrStateResidencyTicks::ON   8783970300                       # Cumulative time (in ticks) in various power states (Tick)
system.mem_ctrl.dram.power_state.pwrStateResidencyTicks::CLK_GATED   8783970300                       # Cumulative time (in ticks) in various power states (Tick)
system.mem_ctrl.dram.power_state.pwrStateResidencyTicks::SRAM_RETENTION   8783970300                       # Cumulative time (in ticks) in various power states (Tick)
system.mem_ctrl.dram.power_state.pwrStateResidencyTicks::OFF   8783970300                       # Cumulative time (in ticks) in various power states (Tick)
system.mem_ctrl.dram.rank0.actEnergy        123372060                       # Energy for activate commands per rank (pJ) (Joule)
system.mem_ctrl.dram.rank0.preEnergy         65570010                       # Energy for precharge commands per rank (pJ) (Joule)
system.mem_ctrl.dram.rank0.readEnergy       165983580                       # Energy for read commands per rank (pJ) (Joule)
system.mem_ctrl.dram.rank0.writeEnergy       57623580                       # Energy for write commands per rank (pJ) (Joule)
system.mem_ctrl.dram.rank0.refreshEnergy 693313920.000000                       # Energy for refresh commands per rank (pJ) (Joule)
system.mem_ctrl.dram.rank0.actBackEnergy   2855697150                       # Energy for active background per rank (pJ) (Joule)
system.mem_ctrl.dram.rank0.preBackEnergy    968247360                       # Energy for precharge background per rank (pJ) (Joule)
system.mem_ctrl.dram.rank0.actPowerDownEnergy            0                       # Energy for active power-down per rank (pJ) (Joule)
system.mem_ctrl.dram.rank0.prePowerDownEnergy            0                       # Energy for precharge power-down per rank (pJ) (Joule)
system.mem_ctrl.dram.rank0.selfRefreshEnergy            0                       # Energy for self refresh per rank (pJ) (Joule)
system.mem_ctrl.dram.rank0.totalEnergy     4929807660                       # Total energy per rank (pJ) (Joule)
system.mem_ctrl.dram.rank0.averagePower    561.227724                       # Core power per rank (mW) (Watt)
system.mem_ctrl.dram.rank0.totalIdleTime            0                       # Total Idle time Per DRAM Rank (Tick)
system.mem_ctrl.dram.rank0.pwrStateTime::IDLE   8783970300                       # Time in different power states (Tick)
system.mem_ctrl.dram.rank0.pwrStateTime::REF   8783970300                       # Time in different power states (Tick)
system.mem_ctrl.dram.rank0.pwrStateTime::SREF   8783970300                       # Time in different power states (Tick)
system.mem_ctrl.dram.rank0.pwrStateTime::PRE_PDN   8783970300                       # Time in different power states (Tick)
system.mem_ctrl.dram.rank0.pwrStateTime::ACT   8783970300                       # Time in different power states (Tick)
system.mem_ctrl.dram.rank0.pwrStateTime::ACT_PDN   8783970300                       # Time in different power states (Tick)
system.mem_ctrl.dram.rank1.actEnergy        130683420                       # Energy for activate commands per rank (pJ) (Joule)
system.mem_ctrl.dram.rank1.preEnergy         69448500                       # Energy for precharge commands per rank (pJ) (Joule)
system.mem_ctrl.dram.rank1.readEnergy       167647200                       # Energy for read commands per rank (pJ) (Joule)
system.mem_ctrl.dram.rank1.writeEnergy       61559460                       # Energy for write commands per rank (pJ) (Joule)
system.mem_ctrl.dram.rank1.refreshEnergy 693313920.000000                       # Energy for refresh commands per rank (pJ) (Joule)
system.mem_ctrl.dram.rank1.actBackEnergy   2934528720                       # Energy for active background per rank (pJ) (Joule)
system.mem_ctrl.dram.rank1.preBackEnergy    901862880                       # Energy for precharge background per rank (pJ) (Joule)
system.mem_ctrl.dram.rank1.actPowerDownEnergy            0                       # Energy for active power-down per rank (pJ) (Joule)
system.mem_ctrl.dram.rank1.prePowerDownEnergy            0                       # Energy for precharge power-down per rank (pJ) (Joule)
system.mem_ctrl.dram.rank1.selfRefreshEnergy            0                       # Energy for self refresh per rank (pJ) (Joule)
system.mem_ctrl.dram.rank1.totalEnergy     4959044100                       # Total energy per rank (pJ) (Joule)
system.mem_ctrl.dram.rank1.averagePower    564.556110                       # Core power per rank (mW) (Watt)
system.mem_ctrl.dram.rank1.totalIdleTime            0                       # Total Idle time Per DRAM Rank (Tick)
system.mem_ctrl.dram.rank1.pwrStateTime::IDLE   8783970300                       # Time in different power states (Tick)
system.mem_ctrl.dram.rank1.pwrStateTime::REF   8783970300                       # Time in different power states (Tick)
system.mem_ctrl.dram.rank1.pwrStateTime::SREF   8783970300                       # Time in different power states (Tick)
system.mem_ctrl.dram.rank1.pwrStateTime::PRE_PDN   8783970300                       # Time in different power states (Tick)
system.mem_ctrl.dram.rank1.pwrStateTime::ACT   8783970300                       # Time in different power states (Tick)
system.mem_ctrl.dram.rank1.pwrStateTime::ACT_PDN   8783970300                       # Time in different power states (Tick)
system.mem_ctrl.power_state.pwrStateResidencyTicks::UNDEFINED   8783970300                       # Cumulative time (in ticks) in various power states (Tick)
system.mem_ctrl.power_state.pwrStateResidencyTicks::ON   8783970300                       # Cumulative time (in ticks) in various power states (Tick)
system.mem_ctrl.power_state.pwrStateResidencyTicks::CLK_GATED   8783970300                       # Cumulative time (in ticks) in various power states (Tick)
system.mem_ctrl.power_state.pwrStateResidencyTicks::SRAM_RETENTION   8783970300                       # Cumulative time (in ticks) in various power states (Tick)
system.mem_ctrl.power_state.pwrStateResidencyTicks::OFF   8783970300                       # Cumulative time (in ticks) in various power states (Tick)
system.membus.transDist::InvalidCmd            126305                       # Transaction distribution (Count)
system.membus.transDist::ReadReq               126305                       # Transaction distribution (Count)
system.membus.transDist::ReadResp              126305                       # Transaction distribution (Count)
system.membus.transDist::ReadRespWithInvalidate       126305                       # Transaction distribution (Count)
system.membus.transDist::WriteReq              126305                       # Transaction distribution (Count)
system.membus.transDist::WriteResp             126305                       # Transaction distribution (Count)
system.membus.transDist::WriteCompleteResp       126305                       # Transaction distribution (Count)
system.membus.transDist::WritebackDirty        126305                       # Transaction distribution (Count)
system.membus.transDist::WritebackClean        126305                       # Transaction distribution (Count)
system.membus.transDist::WriteClean            126305                       # Transaction distribution (Count)
system.membus.transDist::CleanEvict            126305                       # Transaction distribution (Count)
system.membus.transDist::SoftPFReq             126305                       # Transaction distribution (Count)
system.membus.transDist::SoftPFExReq           126305                       # Transaction distribution (Count)
system.membus.transDist::HardPFReq             126305                       # Transaction distribution (Count)
system.membus.transDist::SoftPFResp            126305                       # Transaction distribution (Count)
system.membus.transDist::HardPFResp            126305                       # Transaction distribution (Count)
system.membus.transDist::WriteLineReq          126305                       # Transaction distribution (Count)
system.membus.transDist::UpgradeReq            126305                       # Transaction distribution (Count)
system.membus.transDist::SCUpgradeReq          126305                       # Transaction distribution (Count)
system.membus.transDist::UpgradeResp           126305                       # Transaction distribution (Count)
system.membus.transDist::SCUpgradeFailReq       126305                       # Transaction distribution (Count)
system.membus.transDist::UpgradeFailResp       126305                       # Transaction distribution (Count)
system.membus.transDist::ReadExReq             126305                       # Transaction distribution (Count)
system.membus.transDist::ReadExResp            126305                       # Transaction distribution (Count)
system.membus.transDist::ReadCleanReq          126305                       # Transaction distribution (Count)
system.membus.transDist::ReadSharedReq         126305                       # Transaction distribution (Count)
system.membus.transDist::LoadLockedReq         126305                       # Transaction distribution (Count)
system.membus.transDist::StoreCondReq          126305                       # Transaction distribution (Count)
system.membus.transDist::StoreCondFailReq       126305                       # Transaction distribution (Count)
system.membus.transDist::StoreCondResp         126305                       # Transaction distribution (Count)
system.membus.transDist::SwapReq               126305                       # Transaction distribution (Count)
system.membus.transDist::SwapResp              126305                       # Transaction distribution (Count)
system.membus.transDist::Deprecated_MessageReq       126305                       # Transaction distribution (Count)
system.membus.transDist::Deprecated_MessageResp       126305                       # Transaction distribution (Count)
system.membus.transDist::MemFenceReq           126305                       # Transaction distribution (Count)
system.membus.transDist::MemSyncReq            126305                       # Transaction distribution (Count)
system.membus.transDist::MemSyncResp           126305                       # Transaction distribution (Count)
system.membus.transDist::MemFenceResp          126305                       # Transaction distribution (Count)
system.membus.transDist::CleanSharedReq        126305                       # Transaction distribution (Count)
system.membus.transDist::CleanSharedResp       126305                       # Transaction distribution (Count)
system.membus.transDist::CleanInvalidReq       126305                       # Transaction distribution (Count)
system.membus.transDist::CleanInvalidResp       126305                       # Transaction distribution (Count)
system.membus.transDist::InvalidDestError       126305                       # Transaction distribution (Count)
system.membus.transDist::BadAddressError       126305                       # Transaction distribution (Count)
system.membus.transDist::FunctionalReadError       126305                       # Transaction distribution (Count)
system.membus.transDist::FunctionalWriteError       126305                       # Transaction distribution (Count)
system.membus.transDist::PrintReq              126305                       # Transaction distribution (Count)
system.membus.transDist::FlushReq              126305                       # Transaction distribution (Count)
system.membus.transDist::InvalidateReq         126305                       # Transaction distribution (Count)
system.membus.transDist::InvalidateResp        126305                       # Transaction distribution (Count)
system.membus.transDist::HTMReq                126305                       # Transaction distribution (Count)
system.membus.transDist::HTMReqResp            126305                       # Transaction distribution (Count)
system.membus.transDist::HTMAbort              126305                       # Transaction distribution (Count)
system.membus.pktCount_system.l2cache.mem_side_port::system.mem_ctrl.port       126305                       # Packet count per connected requestor and responder (Count)
system.membus.pktCount_system_port::system.mem_ctrl.port       126305                       # Packet count per connected requestor and responder (Count)
system.membus.pktCount::total                  252610                       # Packet count per connected requestor and responder (Count)
system.membus.pktSize_system.l2cache.mem_side_port::system.mem_ctrl.port      4464896                       # Cumulative packet size per connected requestor and responder (Byte)
system.membus.pktSize_system_port::system.mem_ctrl.port      4464896                       # Cumulative packet size per connected requestor and responder (Byte)
system.membus.pktSize::total                  8929792                       # Cumulative packet size per connected requestor and responder (Byte)
system.membus.snoops                                0                       # Total snoops (Count)
system.membus.snoopTraffic                          0                       # Total snoop traffic (Byte)
system.membus.snoopFanout::samples              48171                       # Request fanout histogram (Count)
system.membus.snoopFanout::mean                     0                       # Request fanout histogram (Count)
system.membus.snoopFanout::stdev                    0                       # Request fanout histogram (Count)
system.membus.snoopFanout::underflows               0      0.00%      0.00% # Request fanout histogram (Count)
system.membus.snoopFanout::0                    48171    100.00%    100.00% # Request fanout histogram (Count)
system.membus.snoopFanout::1                        0      0.00%    100.00% # Request fanout histogram (Count)
system.membus.snoopFanout::overflows                0      0.00%    100.00% # Request fanout histogram (Count)
system.membus.snoopFanout::min_value                0                       # Request fanout histogram (Count)
system.membus.snoopFanout::max_value                0                       # Request fanout histogram (Count)
system.membus.snoopFanout::total                48171                       # Request fanout histogram (Count)
system.membus.power_state.pwrStateResidencyTicks::UNDEFINED   8783970300                       # Cumulative time (in ticks) in various power states (Tick)
system.membus.power_state.pwrStateResidencyTicks::ON   8783970300                       # Cumulative time (in ticks) in various power states (Tick)
system.membus.power_state.pwrStateResidencyTicks::CLK_GATED   8783970300                       # Cumulative time (in ticks) in various power states (Tick)
system.membus.power_state.pwrStateResidencyTicks::SRAM_RETENTION   8783970300                       # Cumulative time (in ticks) in various power states (Tick)
system.membus.power_state.pwrStateResidencyTicks::OFF   8783970300                       # Cumulative time (in ticks) in various power states (Tick)
system.membus.reqLayer0.occupancy           107515022                       # Layer occupancy (ticks) (Tick)
system.membus.reqLayer0.utilization               0.0                       # Layer utilization (Ratio)
system.membus.respLayer0.occupancy          147871969                       # Layer occupancy (ticks) (Tick)
system.membus.respLayer0.utilization              0.0                       # Layer utilization (Ratio)
system.membus.snoop_filter.totRequests          79397                       # Total number of requests made to the snoop filter. (Count)
system.membus.snoop_filter.hitSingleRequests        31231                       # Number of requests hitting in the snoop filter with a single holder of the requested data. (Count)
system.membus.snoop_filter.hitMultiRequests            0                       # Number of requests hitting in the snoop filter with multiple (>1) holders of the requested data. (Count)
system.membus.snoop_filter.totSnoops                0                       # Total number of snoops made to the snoop filter. (Count)
system.membus.snoop_filter.hitSingleSnoops            0                       # Number of snoops hitting in the snoop filter with a single holder of the requested data. (Count)
system.membus.snoop_filter.hitMultiSnoops            0                       # Number of snoops hitting in the snoop filter with multiple (>1) holders of the requested data. (Count)
system.workload.inst.arm                            0                       # number of arm instructions executed (Count)
system.workload.inst.quiesce                        0                       # number of quiesce instructions executed (Count)

---------- End Simulation Statistics   ----------
