
---------- Begin Simulation Statistics ----------
simSeconds                                   0.354424                       # Number of seconds simulated (Second)
simTicks                                 354423976219                       # Number of ticks simulated (Tick)
finalTick                                354423976219                       # Number of ticks from beginning of simulation (restored from checkpoints and never reset) (Tick)
simFreq                                  1000000000000                       # The number of ticks per simulated second ((Tick/Second))
hostSeconds                                   4290.64                       # Real time elapsed on the host (Second)
hostTickRate                                 82603939                       # The number of ticks simulated per host second (ticks/s) ((Tick/Second))
hostMemory                                    9325560                       # Number of bytes of host memory used (Byte)
simInsts                                    512223324                       # Number of instructions simulated (Count)
simOps                                      922693638                       # Number of ops (including micro ops) simulated (Count)
hostInstRate                                   119381                       # Simulator instruction rate (inst/s) ((Count/Second))
hostOpRate                                     215048                       # Simulator op (including micro ops) rate (op/s) ((Count/Second))
system.clk_domain.clock                           571                       # Clock period in ticks (Tick)
system.clk_domain.voltage_domain.voltage     1.050000                       # Voltage in Volts (Volt)
system.cpu0.numCycles                       620707490                       # Number of cpu cycles simulated (Cycle)
system.cpu0.cpi                              1.211791                       # CPI: cycles per instruction (core level) ((Cycle/Count))
system.cpu0.ipc                              0.825225                       # IPC: instructions per cycle (core level) ((Count/Cycle))
system.cpu0.numWorkItemsStarted                     0                       # Number of work items this cpu started (Count)
system.cpu0.numWorkItemsCompleted                   0                       # Number of work items this cpu completed (Count)
system.cpu0.instsAdded                     1010308765                       # Number of instructions added to the IQ (excludes non-spec) (Count)
system.cpu0.nonSpecInstsAdded                   46311                       # Number of non-speculative instructions added to the IQ (Count)
system.cpu0.instsIssued                     982405975                       # Number of instructions issued (Count)
system.cpu0.squashedInstsIssued                294713                       # Number of squashed instructions issued (Count)
system.cpu0.squashedInstsExamined            87661432                       # Number of squashed instructions iterated over during squash; mainly for profiling (Count)
system.cpu0.squashedOperandsExamined        155385899                       # Number of squashed operands that are examined and possibly removed from graph (Count)
system.cpu0.squashedNonSpecRemoved               9222                       # Number of squashed non-spec instructions that were removed (Count)
system.cpu0.numIssuedDist::samples          585453931                       # Number of insts issued each cycle (Count)
system.cpu0.numIssuedDist::mean              1.678024                       # Number of insts issued each cycle (Count)
system.cpu0.numIssuedDist::stdev             2.360718                       # Number of insts issued each cycle (Count)
system.cpu0.numIssuedDist::underflows               0      0.00%      0.00% # Number of insts issued each cycle (Count)
system.cpu0.numIssuedDist::0                328061917     56.04%     56.04% # Number of insts issued each cycle (Count)
system.cpu0.numIssuedDist::1                 42081595      7.19%     63.22% # Number of insts issued each cycle (Count)
system.cpu0.numIssuedDist::2                 45912387      7.84%     71.07% # Number of insts issued each cycle (Count)
system.cpu0.numIssuedDist::3                 39229665      6.70%     77.77% # Number of insts issued each cycle (Count)
system.cpu0.numIssuedDist::4                 34914801      5.96%     83.73% # Number of insts issued each cycle (Count)
system.cpu0.numIssuedDist::5                 30584236      5.22%     88.95% # Number of insts issued each cycle (Count)
system.cpu0.numIssuedDist::6                 28609180      4.89%     93.84% # Number of insts issued each cycle (Count)
system.cpu0.numIssuedDist::7                 21906053      3.74%     97.58% # Number of insts issued each cycle (Count)
system.cpu0.numIssuedDist::8                 14154097      2.42%    100.00% # Number of insts issued each cycle (Count)
system.cpu0.numIssuedDist::overflows                0      0.00%    100.00% # Number of insts issued each cycle (Count)
system.cpu0.numIssuedDist::min_value                0                       # Number of insts issued each cycle (Count)
system.cpu0.numIssuedDist::max_value                8                       # Number of insts issued each cycle (Count)
system.cpu0.numIssuedDist::total            585453931                       # Number of insts issued each cycle (Count)
system.cpu0.statFuBusy::No_OpClass                  0      0.00%      0.00% # attempts to use FU when none available (Count)
system.cpu0.statFuBusy::IntAlu                8162491     73.00%     73.00% # attempts to use FU when none available (Count)
system.cpu0.statFuBusy::IntMult                     0      0.00%     73.00% # attempts to use FU when none available (Count)
system.cpu0.statFuBusy::IntDiv                      0      0.00%     73.00% # attempts to use FU when none available (Count)
system.cpu0.statFuBusy::FloatAdd                    0      0.00%     73.00% # attempts to use FU when none available (Count)
system.cpu0.statFuBusy::FloatCmp                    0      0.00%     73.00% # attempts to use FU when none available (Count)
system.cpu0.statFuBusy::FloatCvt                    0      0.00%     73.00% # attempts to use FU when none available (Count)
system.cpu0.statFuBusy::FloatMult                   0      0.00%     73.00% # attempts to use FU when none available (Count)
system.cpu0.statFuBusy::FloatMultAcc                0      0.00%     73.00% # attempts to use FU when none available (Count)
system.cpu0.statFuBusy::FloatDiv                    0      0.00%     73.00% # attempts to use FU when none available (Count)
system.cpu0.statFuBusy::FloatMisc                   0      0.00%     73.00% # attempts to use FU when none available (Count)
system.cpu0.statFuBusy::FloatSqrt                   0      0.00%     73.00% # attempts to use FU when none available (Count)
system.cpu0.statFuBusy::SimdAdd                    84      0.00%     73.00% # attempts to use FU when none available (Count)
system.cpu0.statFuBusy::SimdAddAcc                  0      0.00%     73.00% # attempts to use FU when none available (Count)
system.cpu0.statFuBusy::SimdAlu                 44347      0.40%     73.40% # attempts to use FU when none available (Count)
system.cpu0.statFuBusy::SimdCmp                    41      0.00%     73.40% # attempts to use FU when none available (Count)
system.cpu0.statFuBusy::SimdCvt                  1610      0.01%     73.41% # attempts to use FU when none available (Count)
system.cpu0.statFuBusy::SimdMisc                 4608      0.04%     73.45% # attempts to use FU when none available (Count)
system.cpu0.statFuBusy::SimdMult                    0      0.00%     73.45% # attempts to use FU when none available (Count)
system.cpu0.statFuBusy::SimdMultAcc                 0      0.00%     73.45% # attempts to use FU when none available (Count)
system.cpu0.statFuBusy::SimdMatMultAcc              0      0.00%     73.45% # attempts to use FU when none available (Count)
system.cpu0.statFuBusy::SimdShift                 408      0.00%     73.46% # attempts to use FU when none available (Count)
system.cpu0.statFuBusy::SimdShiftAcc                0      0.00%     73.46% # attempts to use FU when none available (Count)
system.cpu0.statFuBusy::SimdDiv                     0      0.00%     73.46% # attempts to use FU when none available (Count)
system.cpu0.statFuBusy::SimdSqrt                    0      0.00%     73.46% # attempts to use FU when none available (Count)
system.cpu0.statFuBusy::SimdFloatAdd              352      0.00%     73.46% # attempts to use FU when none available (Count)
system.cpu0.statFuBusy::SimdFloatAlu                0      0.00%     73.46% # attempts to use FU when none available (Count)
system.cpu0.statFuBusy::SimdFloatCmp                0      0.00%     73.46% # attempts to use FU when none available (Count)
system.cpu0.statFuBusy::SimdFloatCvt                0      0.00%     73.46% # attempts to use FU when none available (Count)
system.cpu0.statFuBusy::SimdFloatDiv                0      0.00%     73.46% # attempts to use FU when none available (Count)
system.cpu0.statFuBusy::SimdFloatMisc               0      0.00%     73.46% # attempts to use FU when none available (Count)
system.cpu0.statFuBusy::SimdFloatMult             352      0.00%     73.46% # attempts to use FU when none available (Count)
system.cpu0.statFuBusy::SimdFloatMultAcc            0      0.00%     73.46% # attempts to use FU when none available (Count)
system.cpu0.statFuBusy::SimdFloatMatMultAcc            0      0.00%     73.46% # attempts to use FU when none available (Count)
system.cpu0.statFuBusy::SimdFloatSqrt               0      0.00%     73.46% # attempts to use FU when none available (Count)
system.cpu0.statFuBusy::SimdReduceAdd               0      0.00%     73.46% # attempts to use FU when none available (Count)
system.cpu0.statFuBusy::SimdReduceAlu               0      0.00%     73.46% # attempts to use FU when none available (Count)
system.cpu0.statFuBusy::SimdReduceCmp               0      0.00%     73.46% # attempts to use FU when none available (Count)
system.cpu0.statFuBusy::SimdFloatReduceAdd            0      0.00%     73.46% # attempts to use FU when none available (Count)
system.cpu0.statFuBusy::SimdFloatReduceCmp            0      0.00%     73.46% # attempts to use FU when none available (Count)
system.cpu0.statFuBusy::SimdAes                     0      0.00%     73.46% # attempts to use FU when none available (Count)
system.cpu0.statFuBusy::SimdAesMix                  0      0.00%     73.46% # attempts to use FU when none available (Count)
system.cpu0.statFuBusy::SimdSha1Hash                0      0.00%     73.46% # attempts to use FU when none available (Count)
system.cpu0.statFuBusy::SimdSha1Hash2               0      0.00%     73.46% # attempts to use FU when none available (Count)
system.cpu0.statFuBusy::SimdSha256Hash              0      0.00%     73.46% # attempts to use FU when none available (Count)
system.cpu0.statFuBusy::SimdSha256Hash2             0      0.00%     73.46% # attempts to use FU when none available (Count)
system.cpu0.statFuBusy::SimdShaSigma2               0      0.00%     73.46% # attempts to use FU when none available (Count)
system.cpu0.statFuBusy::SimdShaSigma3               0      0.00%     73.46% # attempts to use FU when none available (Count)
system.cpu0.statFuBusy::SimdPredAlu                 0      0.00%     73.46% # attempts to use FU when none available (Count)
system.cpu0.statFuBusy::Matrix                      0      0.00%     73.46% # attempts to use FU when none available (Count)
system.cpu0.statFuBusy::MatrixMov                   0      0.00%     73.46% # attempts to use FU when none available (Count)
system.cpu0.statFuBusy::MatrixOP                    0      0.00%     73.46% # attempts to use FU when none available (Count)
system.cpu0.statFuBusy::MemRead               2033018     18.18%     91.65% # attempts to use FU when none available (Count)
system.cpu0.statFuBusy::MemWrite               810431      7.25%     98.89% # attempts to use FU when none available (Count)
system.cpu0.statFuBusy::FloatMemRead            37985      0.34%     99.23% # attempts to use FU when none available (Count)
system.cpu0.statFuBusy::FloatMemWrite           85789      0.77%    100.00% # attempts to use FU when none available (Count)
system.cpu0.statFuBusy::IprAccess                   0      0.00%    100.00% # attempts to use FU when none available (Count)
system.cpu0.statFuBusy::InstPrefetch                0      0.00%    100.00% # attempts to use FU when none available (Count)
system.cpu0.statFuBusy::VectorUnitStrideLoad            0      0.00%    100.00% # attempts to use FU when none available (Count)
system.cpu0.statFuBusy::VectorUnitStrideStore            0      0.00%    100.00% # attempts to use FU when none available (Count)
system.cpu0.statFuBusy::VectorUnitStrideMaskLoad            0      0.00%    100.00% # attempts to use FU when none available (Count)
system.cpu0.statFuBusy::VectorUnitStrideMaskStore            0      0.00%    100.00% # attempts to use FU when none available (Count)
system.cpu0.statFuBusy::VectorStridedLoad            0      0.00%    100.00% # attempts to use FU when none available (Count)
system.cpu0.statFuBusy::VectorStridedStore            0      0.00%    100.00% # attempts to use FU when none available (Count)
system.cpu0.statFuBusy::VectorIndexedLoad            0      0.00%    100.00% # attempts to use FU when none available (Count)
system.cpu0.statFuBusy::VectorIndexedStore            0      0.00%    100.00% # attempts to use FU when none available (Count)
system.cpu0.statFuBusy::VectorUnitStrideFaultOnlyFirstLoad            0      0.00%    100.00% # attempts to use FU when none available (Count)
system.cpu0.statFuBusy::VectorWholeRegisterLoad            0      0.00%    100.00% # attempts to use FU when none available (Count)
system.cpu0.statFuBusy::VectorWholeRegisterStore            0      0.00%    100.00% # attempts to use FU when none available (Count)
system.cpu0.statFuBusy::VectorIntegerArith            0      0.00%    100.00% # attempts to use FU when none available (Count)
system.cpu0.statFuBusy::VectorFloatArith            0      0.00%    100.00% # attempts to use FU when none available (Count)
system.cpu0.statFuBusy::VectorFloatConvert            0      0.00%    100.00% # attempts to use FU when none available (Count)
system.cpu0.statFuBusy::VectorIntegerReduce            0      0.00%    100.00% # attempts to use FU when none available (Count)
system.cpu0.statFuBusy::VectorFloatReduce            0      0.00%    100.00% # attempts to use FU when none available (Count)
system.cpu0.statFuBusy::VectorMisc                  0      0.00%    100.00% # attempts to use FU when none available (Count)
system.cpu0.statFuBusy::VectorIntegerExtension            0      0.00%    100.00% # attempts to use FU when none available (Count)
system.cpu0.statFuBusy::VectorConfig                0      0.00%    100.00% # attempts to use FU when none available (Count)
system.cpu0.statIssuedInstType_0::No_OpClass     13018651      1.33%      1.33% # Number of instructions issued per FU type, per thread (Count)
system.cpu0.statIssuedInstType_0::IntAlu    716717522     72.96%     74.28% # Number of instructions issued per FU type, per thread (Count)
system.cpu0.statIssuedInstType_0::IntMult       322910      0.03%     74.31% # Number of instructions issued per FU type, per thread (Count)
system.cpu0.statIssuedInstType_0::IntDiv       496097      0.05%     74.36% # Number of instructions issued per FU type, per thread (Count)
system.cpu0.statIssuedInstType_0::FloatAdd      1630196      0.17%     74.53% # Number of instructions issued per FU type, per thread (Count)
system.cpu0.statIssuedInstType_0::FloatCmp           19      0.00%     74.53% # Number of instructions issued per FU type, per thread (Count)
system.cpu0.statIssuedInstType_0::FloatCvt           64      0.00%     74.53% # Number of instructions issued per FU type, per thread (Count)
system.cpu0.statIssuedInstType_0::FloatMult            7      0.00%     74.53% # Number of instructions issued per FU type, per thread (Count)
system.cpu0.statIssuedInstType_0::FloatMultAcc            0      0.00%     74.53% # Number of instructions issued per FU type, per thread (Count)
system.cpu0.statIssuedInstType_0::FloatDiv           42      0.00%     74.53% # Number of instructions issued per FU type, per thread (Count)
system.cpu0.statIssuedInstType_0::FloatMisc            0      0.00%     74.53% # Number of instructions issued per FU type, per thread (Count)
system.cpu0.statIssuedInstType_0::FloatSqrt            0      0.00%     74.53% # Number of instructions issued per FU type, per thread (Count)
system.cpu0.statIssuedInstType_0::SimdAdd        21488      0.00%     74.53% # Number of instructions issued per FU type, per thread (Count)
system.cpu0.statIssuedInstType_0::SimdAddAcc            0      0.00%     74.53% # Number of instructions issued per FU type, per thread (Count)
system.cpu0.statIssuedInstType_0::SimdAlu      1369504      0.14%     74.67% # Number of instructions issued per FU type, per thread (Count)
system.cpu0.statIssuedInstType_0::SimdCmp         9098      0.00%     74.67% # Number of instructions issued per FU type, per thread (Count)
system.cpu0.statIssuedInstType_0::SimdCvt       155282      0.02%     74.69% # Number of instructions issued per FU type, per thread (Count)
system.cpu0.statIssuedInstType_0::SimdMisc      1683671      0.17%     74.86% # Number of instructions issued per FU type, per thread (Count)
system.cpu0.statIssuedInstType_0::SimdMult            0      0.00%     74.86% # Number of instructions issued per FU type, per thread (Count)
system.cpu0.statIssuedInstType_0::SimdMultAcc            0      0.00%     74.86% # Number of instructions issued per FU type, per thread (Count)
system.cpu0.statIssuedInstType_0::SimdMatMultAcc            0      0.00%     74.86% # Number of instructions issued per FU type, per thread (Count)
system.cpu0.statIssuedInstType_0::SimdShift        12724      0.00%     74.86% # Number of instructions issued per FU type, per thread (Count)
system.cpu0.statIssuedInstType_0::SimdShiftAcc            0      0.00%     74.86% # Number of instructions issued per FU type, per thread (Count)
system.cpu0.statIssuedInstType_0::SimdDiv            0      0.00%     74.86% # Number of instructions issued per FU type, per thread (Count)
system.cpu0.statIssuedInstType_0::SimdSqrt            0      0.00%     74.86% # Number of instructions issued per FU type, per thread (Count)
system.cpu0.statIssuedInstType_0::SimdFloatAdd       562987      0.06%     74.92% # Number of instructions issued per FU type, per thread (Count)
system.cpu0.statIssuedInstType_0::SimdFloatAlu            0      0.00%     74.92% # Number of instructions issued per FU type, per thread (Count)
system.cpu0.statIssuedInstType_0::SimdFloatCmp            1      0.00%     74.92% # Number of instructions issued per FU type, per thread (Count)
system.cpu0.statIssuedInstType_0::SimdFloatCvt       650962      0.07%     74.98% # Number of instructions issued per FU type, per thread (Count)
system.cpu0.statIssuedInstType_0::SimdFloatDiv        66966      0.01%     74.99% # Number of instructions issued per FU type, per thread (Count)
system.cpu0.statIssuedInstType_0::SimdFloatMisc            0      0.00%     74.99% # Number of instructions issued per FU type, per thread (Count)
system.cpu0.statIssuedInstType_0::SimdFloatMult       503650      0.05%     75.04% # Number of instructions issued per FU type, per thread (Count)
system.cpu0.statIssuedInstType_0::SimdFloatMultAcc            0      0.00%     75.04% # Number of instructions issued per FU type, per thread (Count)
system.cpu0.statIssuedInstType_0::SimdFloatMatMultAcc            0      0.00%     75.04% # Number of instructions issued per FU type, per thread (Count)
system.cpu0.statIssuedInstType_0::SimdFloatSqrt        10581      0.00%     75.04% # Number of instructions issued per FU type, per thread (Count)
system.cpu0.statIssuedInstType_0::SimdReduceAdd            0      0.00%     75.04% # Number of instructions issued per FU type, per thread (Count)
system.cpu0.statIssuedInstType_0::SimdReduceAlu            0      0.00%     75.04% # Number of instructions issued per FU type, per thread (Count)
system.cpu0.statIssuedInstType_0::SimdReduceCmp            0      0.00%     75.04% # Number of instructions issued per FU type, per thread (Count)
system.cpu0.statIssuedInstType_0::SimdFloatReduceAdd            0      0.00%     75.04% # Number of instructions issued per FU type, per thread (Count)
system.cpu0.statIssuedInstType_0::SimdFloatReduceCmp            0      0.00%     75.04% # Number of instructions issued per FU type, per thread (Count)
system.cpu0.statIssuedInstType_0::SimdAes            0      0.00%     75.04% # Number of instructions issued per FU type, per thread (Count)
system.cpu0.statIssuedInstType_0::SimdAesMix            0      0.00%     75.04% # Number of instructions issued per FU type, per thread (Count)
system.cpu0.statIssuedInstType_0::SimdSha1Hash            0      0.00%     75.04% # Number of instructions issued per FU type, per thread (Count)
system.cpu0.statIssuedInstType_0::SimdSha1Hash2            0      0.00%     75.04% # Number of instructions issued per FU type, per thread (Count)
system.cpu0.statIssuedInstType_0::SimdSha256Hash            0      0.00%     75.04% # Number of instructions issued per FU type, per thread (Count)
system.cpu0.statIssuedInstType_0::SimdSha256Hash2            0      0.00%     75.04% # Number of instructions issued per FU type, per thread (Count)
system.cpu0.statIssuedInstType_0::SimdShaSigma2            0      0.00%     75.04% # Number of instructions issued per FU type, per thread (Count)
system.cpu0.statIssuedInstType_0::SimdShaSigma3            0      0.00%     75.04% # Number of instructions issued per FU type, per thread (Count)
system.cpu0.statIssuedInstType_0::SimdPredAlu            0      0.00%     75.04% # Number of instructions issued per FU type, per thread (Count)
system.cpu0.statIssuedInstType_0::Matrix            0      0.00%     75.04% # Number of instructions issued per FU type, per thread (Count)
system.cpu0.statIssuedInstType_0::MatrixMov            0      0.00%     75.04% # Number of instructions issued per FU type, per thread (Count)
system.cpu0.statIssuedInstType_0::MatrixOP            0      0.00%     75.04% # Number of instructions issued per FU type, per thread (Count)
system.cpu0.statIssuedInstType_0::MemRead    161130507     16.40%     91.45% # Number of instructions issued per FU type, per thread (Count)
system.cpu0.statIssuedInstType_0::MemWrite     79694794      8.11%     99.56% # Number of instructions issued per FU type, per thread (Count)
system.cpu0.statIssuedInstType_0::FloatMemRead      1991993      0.20%     99.76% # Number of instructions issued per FU type, per thread (Count)
system.cpu0.statIssuedInstType_0::FloatMemWrite      2356259      0.24%    100.00% # Number of instructions issued per FU type, per thread (Count)
system.cpu0.statIssuedInstType_0::IprAccess            0      0.00%    100.00% # Number of instructions issued per FU type, per thread (Count)
system.cpu0.statIssuedInstType_0::InstPrefetch            0      0.00%    100.00% # Number of instructions issued per FU type, per thread (Count)
system.cpu0.statIssuedInstType_0::VectorUnitStrideLoad            0      0.00%    100.00% # Number of instructions issued per FU type, per thread (Count)
system.cpu0.statIssuedInstType_0::VectorUnitStrideStore            0      0.00%    100.00% # Number of instructions issued per FU type, per thread (Count)
system.cpu0.statIssuedInstType_0::VectorUnitStrideMaskLoad            0      0.00%    100.00% # Number of instructions issued per FU type, per thread (Count)
system.cpu0.statIssuedInstType_0::VectorUnitStrideMaskStore            0      0.00%    100.00% # Number of instructions issued per FU type, per thread (Count)
system.cpu0.statIssuedInstType_0::VectorStridedLoad            0      0.00%    100.00% # Number of instructions issued per FU type, per thread (Count)
system.cpu0.statIssuedInstType_0::VectorStridedStore            0      0.00%    100.00% # Number of instructions issued per FU type, per thread (Count)
system.cpu0.statIssuedInstType_0::VectorIndexedLoad            0      0.00%    100.00% # Number of instructions issued per FU type, per thread (Count)
system.cpu0.statIssuedInstType_0::VectorIndexedStore            0      0.00%    100.00% # Number of instructions issued per FU type, per thread (Count)
system.cpu0.statIssuedInstType_0::VectorUnitStrideFaultOnlyFirstLoad            0      0.00%    100.00% # Number of instructions issued per FU type, per thread (Count)
system.cpu0.statIssuedInstType_0::VectorWholeRegisterLoad            0      0.00%    100.00% # Number of instructions issued per FU type, per thread (Count)
system.cpu0.statIssuedInstType_0::VectorWholeRegisterStore            0      0.00%    100.00% # Number of instructions issued per FU type, per thread (Count)
system.cpu0.statIssuedInstType_0::VectorIntegerArith            0      0.00%    100.00% # Number of instructions issued per FU type, per thread (Count)
system.cpu0.statIssuedInstType_0::VectorFloatArith            0      0.00%    100.00% # Number of instructions issued per FU type, per thread (Count)
system.cpu0.statIssuedInstType_0::VectorFloatConvert            0      0.00%    100.00% # Number of instructions issued per FU type, per thread (Count)
system.cpu0.statIssuedInstType_0::VectorIntegerReduce            0      0.00%    100.00% # Number of instructions issued per FU type, per thread (Count)
system.cpu0.statIssuedInstType_0::VectorFloatReduce            0      0.00%    100.00% # Number of instructions issued per FU type, per thread (Count)
system.cpu0.statIssuedInstType_0::VectorMisc            0      0.00%    100.00% # Number of instructions issued per FU type, per thread (Count)
system.cpu0.statIssuedInstType_0::VectorIntegerExtension            0      0.00%    100.00% # Number of instructions issued per FU type, per thread (Count)
system.cpu0.statIssuedInstType_0::VectorConfig            0      0.00%    100.00% # Number of instructions issued per FU type, per thread (Count)
system.cpu0.statIssuedInstType_0::total     982405975                       # Number of instructions issued per FU type, per thread (Count)
system.cpu0.issueRate                        1.582720                       # Inst issue rate ((Count/Cycle))
system.cpu0.fuBusy                           11181516                       # FU busy when requested (Count)
system.cpu0.fuBusyRate                       0.011382                       # FU busy rate (busy events/executed inst) ((Count/Count))
system.cpu0.intInstQueueReads              2537998987                       # Number of integer instruction queue reads (Count)
system.cpu0.intInstQueueWrites             1085176453                       # Number of integer instruction queue writes (Count)
system.cpu0.intInstQueueWakeupAccesses      962734251                       # Number of integer instruction queue wakeup accesses (Count)
system.cpu0.fpInstQueueReads                 23743123                       # Number of floating instruction queue reads (Count)
system.cpu0.fpInstQueueWrites                12889516                       # Number of floating instruction queue writes (Count)
system.cpu0.fpInstQueueWakeupAccesses        11607591                       # Number of floating instruction queue wakeup accesses (Count)
system.cpu0.vecInstQueueReads                       0                       # Number of vector instruction queue reads (Count)
system.cpu0.vecInstQueueWrites                      0                       # Number of vector instruction queue writes (Count)
system.cpu0.vecInstQueueWakeupAccesses              0                       # Number of vector instruction queue wakeup accesses (Count)
system.cpu0.intAluAccesses                  968614814                       # Number of integer alu accesses (Count)
system.cpu0.fpAluAccesses                    11954026                       # Number of floating point alu accesses (Count)
system.cpu0.vecAluAccesses                          0                       # Number of vector alu accesses (Count)
system.cpu0.numSquashedInsts                  4777180                       # Number of squashed instructions skipped in execute (Count)
system.cpu0.numSwp                                  0                       # Number of swp insts executed (Count)
system.cpu0.timesIdled                        6032401                       # Number of times that the entire CPU went into an idle state and unscheduled itself (Count)
system.cpu0.idleCycles                       35253559                       # Total number of cycles that the CPU has spent unscheduled due to idling (Cycle)
system.cpu0.MemDepUnit__0.insertedLoads     167720018                       # Number of loads inserted to the mem dependence unit. (Count)
system.cpu0.MemDepUnit__0.insertedStores     84571838                       # Number of stores inserted to the mem dependence unit. (Count)
system.cpu0.MemDepUnit__0.conflictingLoads      4881207                       # Number of conflicting loads. (Count)
system.cpu0.MemDepUnit__0.conflictingStores      3449267                       # Number of conflicting stores. (Count)
system.cpu0.MemDepUnit__1.insertedLoads             0                       # Number of loads inserted to the mem dependence unit. (Count)
system.cpu0.MemDepUnit__1.insertedStores            0                       # Number of stores inserted to the mem dependence unit. (Count)
system.cpu0.MemDepUnit__1.conflictingLoads            0                       # Number of conflicting loads. (Count)
system.cpu0.MemDepUnit__1.conflictingStores            0                       # Number of conflicting stores. (Count)
system.cpu0.MemDepUnit__2.insertedLoads             0                       # Number of loads inserted to the mem dependence unit. (Count)
system.cpu0.MemDepUnit__2.insertedStores            0                       # Number of stores inserted to the mem dependence unit. (Count)
system.cpu0.MemDepUnit__2.conflictingLoads            0                       # Number of conflicting loads. (Count)
system.cpu0.MemDepUnit__2.conflictingStores            0                       # Number of conflicting stores. (Count)
system.cpu0.MemDepUnit__3.insertedLoads             0                       # Number of loads inserted to the mem dependence unit. (Count)
system.cpu0.MemDepUnit__3.insertedStores            0                       # Number of stores inserted to the mem dependence unit. (Count)
system.cpu0.MemDepUnit__3.conflictingLoads            0                       # Number of conflicting loads. (Count)
system.cpu0.MemDepUnit__3.conflictingStores            0                       # Number of conflicting stores. (Count)
system.cpu0.branchPred.lookups_0::NoBranch         8810      0.01%      0.01% # Number of BP lookups (Count)
system.cpu0.branchPred.lookups_0::Return      6255764      5.65%      5.66% # Number of BP lookups (Count)
system.cpu0.branchPred.lookups_0::CallDirect      3342153      3.02%      8.68% # Number of BP lookups (Count)
system.cpu0.branchPred.lookups_0::CallIndirect      3279217      2.96%     11.64% # Number of BP lookups (Count)
system.cpu0.branchPred.lookups_0::DirectCond     89099321     80.49%     92.13% # Number of BP lookups (Count)
system.cpu0.branchPred.lookups_0::DirectUncond      2419586      2.19%     94.31% # Number of BP lookups (Count)
system.cpu0.branchPred.lookups_0::IndirectCond            0      0.00%     94.31% # Number of BP lookups (Count)
system.cpu0.branchPred.lookups_0::IndirectUncond      6296005      5.69%    100.00% # Number of BP lookups (Count)
system.cpu0.branchPred.lookups_0::total     110700856                       # Number of BP lookups (Count)
system.cpu0.branchPred.squashes_0::NoBranch         8037      0.06%      0.06% # Number of branches that got squashed (completely removed) as an earlier branch was mispredicted. (Count)
system.cpu0.branchPred.squashes_0::Return       566808      4.25%      4.31% # Number of branches that got squashed (completely removed) as an earlier branch was mispredicted. (Count)
system.cpu0.branchPred.squashes_0::CallDirect       447621      3.35%      7.66% # Number of branches that got squashed (completely removed) as an earlier branch was mispredicted. (Count)
system.cpu0.branchPred.squashes_0::CallIndirect       484788      3.63%     11.29% # Number of branches that got squashed (completely removed) as an earlier branch was mispredicted. (Count)
system.cpu0.branchPred.squashes_0::DirectCond     10525594     78.84%     90.13% # Number of branches that got squashed (completely removed) as an earlier branch was mispredicted. (Count)
system.cpu0.branchPred.squashes_0::DirectUncond       408040      3.06%     93.19% # Number of branches that got squashed (completely removed) as an earlier branch was mispredicted. (Count)
system.cpu0.branchPred.squashes_0::IndirectCond            0      0.00%     93.19% # Number of branches that got squashed (completely removed) as an earlier branch was mispredicted. (Count)
system.cpu0.branchPred.squashes_0::IndirectUncond       909314      6.81%    100.00% # Number of branches that got squashed (completely removed) as an earlier branch was mispredicted. (Count)
system.cpu0.branchPred.squashes_0::total     13350202                       # Number of branches that got squashed (completely removed) as an earlier branch was mispredicted. (Count)
system.cpu0.branchPred.corrected_0::NoBranch         1875      0.07%      0.07% # Number of branches that got corrected but not yet commited. Branches get corrected by decode or after execute. Also a branch misprediction can be detected out-of-order. Therefore, a corrected branch might not end up beeing committed in case an even earlier branch was mispredicted (Count)
system.cpu0.branchPred.corrected_0::Return        12224      0.43%      0.50% # Number of branches that got corrected but not yet commited. Branches get corrected by decode or after execute. Also a branch misprediction can be detected out-of-order. Therefore, a corrected branch might not end up beeing committed in case an even earlier branch was mispredicted (Count)
system.cpu0.branchPred.corrected_0::CallDirect        94768      3.37%      3.87% # Number of branches that got corrected but not yet commited. Branches get corrected by decode or after execute. Also a branch misprediction can be detected out-of-order. Therefore, a corrected branch might not end up beeing committed in case an even earlier branch was mispredicted (Count)
system.cpu0.branchPred.corrected_0::CallIndirect       196124      6.97%     10.85% # Number of branches that got corrected but not yet commited. Branches get corrected by decode or after execute. Also a branch misprediction can be detected out-of-order. Therefore, a corrected branch might not end up beeing committed in case an even earlier branch was mispredicted (Count)
system.cpu0.branchPred.corrected_0::DirectCond      1335546     47.50%     58.34% # Number of branches that got corrected but not yet commited. Branches get corrected by decode or after execute. Also a branch misprediction can be detected out-of-order. Therefore, a corrected branch might not end up beeing committed in case an even earlier branch was mispredicted (Count)
system.cpu0.branchPred.corrected_0::DirectUncond        83951      2.99%     61.33% # Number of branches that got corrected but not yet commited. Branches get corrected by decode or after execute. Also a branch misprediction can be detected out-of-order. Therefore, a corrected branch might not end up beeing committed in case an even earlier branch was mispredicted (Count)
system.cpu0.branchPred.corrected_0::IndirectCond            0      0.00%     61.33% # Number of branches that got corrected but not yet commited. Branches get corrected by decode or after execute. Also a branch misprediction can be detected out-of-order. Therefore, a corrected branch might not end up beeing committed in case an even earlier branch was mispredicted (Count)
system.cpu0.branchPred.corrected_0::IndirectUncond      1087362     38.67%    100.00% # Number of branches that got corrected but not yet commited. Branches get corrected by decode or after execute. Also a branch misprediction can be detected out-of-order. Therefore, a corrected branch might not end up beeing committed in case an even earlier branch was mispredicted (Count)
system.cpu0.branchPred.corrected_0::total      2811850                       # Number of branches that got corrected but not yet commited. Branches get corrected by decode or after execute. Also a branch misprediction can be detected out-of-order. Therefore, a corrected branch might not end up beeing committed in case an even earlier branch was mispredicted (Count)
system.cpu0.branchPred.earlyResteers_0::NoBranch            0                       # Number of branches that got redirected after decode. (Count)
system.cpu0.branchPred.earlyResteers_0::Return            0                       # Number of branches that got redirected after decode. (Count)
system.cpu0.branchPred.earlyResteers_0::CallDirect            0                       # Number of branches that got redirected after decode. (Count)
system.cpu0.branchPred.earlyResteers_0::CallIndirect            0                       # Number of branches that got redirected after decode. (Count)
system.cpu0.branchPred.earlyResteers_0::DirectCond            0                       # Number of branches that got redirected after decode. (Count)
system.cpu0.branchPred.earlyResteers_0::DirectUncond            0                       # Number of branches that got redirected after decode. (Count)
system.cpu0.branchPred.earlyResteers_0::IndirectCond            0                       # Number of branches that got redirected after decode. (Count)
system.cpu0.branchPred.earlyResteers_0::IndirectUncond            0                       # Number of branches that got redirected after decode. (Count)
system.cpu0.branchPred.earlyResteers_0::total            0                       # Number of branches that got redirected after decode. (Count)
system.cpu0.branchPred.committed_0::NoBranch          773      0.00%      0.00% # Number of branches finally committed  (Count)
system.cpu0.branchPred.committed_0::Return      5688956      5.84%      5.84% # Number of branches finally committed  (Count)
system.cpu0.branchPred.committed_0::CallDirect      2894532      2.97%      8.82% # Number of branches finally committed  (Count)
system.cpu0.branchPred.committed_0::CallIndirect      2794429      2.87%     11.69% # Number of branches finally committed  (Count)
system.cpu0.branchPred.committed_0::DirectCond     78573724     80.71%     92.40% # Number of branches finally committed  (Count)
system.cpu0.branchPred.committed_0::DirectUncond      2011546      2.07%     94.47% # Number of branches finally committed  (Count)
system.cpu0.branchPred.committed_0::IndirectCond            0      0.00%     94.47% # Number of branches finally committed  (Count)
system.cpu0.branchPred.committed_0::IndirectUncond      5386691      5.53%    100.00% # Number of branches finally committed  (Count)
system.cpu0.branchPred.committed_0::total     97350651                       # Number of branches finally committed  (Count)
system.cpu0.branchPred.mispredicted_0::NoBranch          773      0.03%      0.03% # Number of committed branches that were mispredicted. (Count)
system.cpu0.branchPred.mispredicted_0::Return         3754      0.14%      0.17% # Number of committed branches that were mispredicted. (Count)
system.cpu0.branchPred.mispredicted_0::CallDirect        81510      3.12%      3.29% # Number of committed branches that were mispredicted. (Count)
system.cpu0.branchPred.mispredicted_0::CallIndirect       180296      6.89%     10.18% # Number of committed branches that were mispredicted. (Count)
system.cpu0.branchPred.mispredicted_0::DirectCond      1207202     46.16%     56.35% # Number of committed branches that were mispredicted. (Count)
system.cpu0.branchPred.mispredicted_0::DirectUncond        63662      2.43%     58.78% # Number of committed branches that were mispredicted. (Count)
system.cpu0.branchPred.mispredicted_0::IndirectCond            0      0.00%     58.78% # Number of committed branches that were mispredicted. (Count)
system.cpu0.branchPred.mispredicted_0::IndirectUncond      1077912     41.22%    100.00% # Number of committed branches that were mispredicted. (Count)
system.cpu0.branchPred.mispredicted_0::total      2615109                       # Number of committed branches that were mispredicted. (Count)
system.cpu0.branchPred.targetProvider_0::NoTarget     79377203     71.70%     71.70% # The component providing the target for taken branches (Count)
system.cpu0.branchPred.targetProvider_0::BTB     16612614     15.01%     86.71% # The component providing the target for taken branches (Count)
system.cpu0.branchPred.targetProvider_0::RAS      6255764      5.65%     92.36% # The component providing the target for taken branches (Count)
system.cpu0.branchPred.targetProvider_0::Indirect      8455275      7.64%    100.00% # The component providing the target for taken branches (Count)
system.cpu0.branchPred.targetProvider_0::total    110700856                       # The component providing the target for taken branches (Count)
system.cpu0.branchPred.targetWrong_0::NoBranch      1577131     56.24%     56.24% # Number of branches where the target was incorrect or not available at prediction time. (Count)
system.cpu0.branchPred.targetWrong_0::Return       374877     13.37%     69.61% # Number of branches where the target was incorrect or not available at prediction time. (Count)
system.cpu0.branchPred.targetWrong_0::CallDirect        12224      0.44%     70.05% # Number of branches where the target was incorrect or not available at prediction time. (Count)
system.cpu0.branchPred.targetWrong_0::CallIndirect       839852     29.95%    100.00% # Number of branches where the target was incorrect or not available at prediction time. (Count)
system.cpu0.branchPred.targetWrong_0::DirectCond            0      0.00%    100.00% # Number of branches where the target was incorrect or not available at prediction time. (Count)
system.cpu0.branchPred.targetWrong_0::DirectUncond            0      0.00%    100.00% # Number of branches where the target was incorrect or not available at prediction time. (Count)
system.cpu0.branchPred.targetWrong_0::IndirectCond            0      0.00%    100.00% # Number of branches where the target was incorrect or not available at prediction time. (Count)
system.cpu0.branchPred.targetWrong_0::IndirectUncond            0      0.00%    100.00% # Number of branches where the target was incorrect or not available at prediction time. (Count)
system.cpu0.branchPred.targetWrong_0::total      2804084                       # Number of branches where the target was incorrect or not available at prediction time. (Count)
system.cpu0.branchPred.condPredicted         89108116                       # Number of conditional branches predicted (Count)
system.cpu0.branchPred.condPredictedTaken     11666842                       # Number of conditional branches predicted as taken (Count)
system.cpu0.branchPred.condIncorrect          2811850                       # Number of conditional branches incorrect (Count)
system.cpu0.branchPred.predTakenBTBMiss        368557                       # Number of branches predicted taken but missed in BTB (Count)
system.cpu0.branchPred.NotTakenMispredicted      2456580                       # Number branches predicted 'not taken' but turned out to be taken (Count)
system.cpu0.branchPred.TakenMispredicted       355270                       # Number branches predicted taken but are actually not taken (Count)
system.cpu0.branchPred.BTBLookups           110700856                       # Number of BTB lookups (Count)
system.cpu0.branchPred.BTBUpdates             1158995                       # Number of BTB updates (Count)
system.cpu0.branchPred.BTBHits               41773100                       # Number of BTB hits (Count)
system.cpu0.branchPred.BTBHitRatio           0.377351                       # BTB Hit Ratio (Ratio)
system.cpu0.branchPred.BTBMispredicted         441411                       # Number BTB mispredictions. No target found or target wrong (Count)
system.cpu0.branchPred.indirectLookups        9575221                       # Number of indirect predictor lookups. (Count)
system.cpu0.branchPred.indirectHits           8455275                       # Number of indirect target hits. (Count)
system.cpu0.branchPred.indirectMisses         1119946                       # Number of indirect misses. (Count)
system.cpu0.branchPred.indirectMispredicted            0                       # Number of mispredicted indirect branches. (Count)
system.cpu0.branchPred.btb.lookups::NoBranch         8810      0.01%      0.01% # Number of BTB lookups (Count)
system.cpu0.branchPred.btb.lookups::Return      6255764      5.65%      5.66% # Number of BTB lookups (Count)
system.cpu0.branchPred.btb.lookups::CallDirect      3342153      3.02%      8.68% # Number of BTB lookups (Count)
system.cpu0.branchPred.btb.lookups::CallIndirect      3279217      2.96%     11.64% # Number of BTB lookups (Count)
system.cpu0.branchPred.btb.lookups::DirectCond     89099321     80.49%     92.13% # Number of BTB lookups (Count)
system.cpu0.branchPred.btb.lookups::DirectUncond      2419586      2.19%     94.31% # Number of BTB lookups (Count)
system.cpu0.branchPred.btb.lookups::IndirectCond            0      0.00%     94.31% # Number of BTB lookups (Count)
system.cpu0.branchPred.btb.lookups::IndirectUncond      6296005      5.69%    100.00% # Number of BTB lookups (Count)
system.cpu0.branchPred.btb.lookups::total    110700856                       # Number of BTB lookups (Count)
system.cpu0.branchPred.btb.misses::NoBranch         1517      0.00%      0.00% # Number of BTB misses (Count)
system.cpu0.branchPred.btb.misses::Return      6254102      9.07%      9.08% # Number of BTB misses (Count)
system.cpu0.branchPred.btb.misses::CallDirect       107459      0.16%      9.23% # Number of BTB misses (Count)
system.cpu0.branchPred.btb.misses::CallIndirect      3247712      4.71%     13.94% # Number of BTB misses (Count)
system.cpu0.branchPred.btb.misses::DirectCond     52918805     76.77%     90.72% # Number of BTB misses (Count)
system.cpu0.branchPred.btb.misses::DirectUncond       102333      0.15%     90.87% # Number of BTB misses (Count)
system.cpu0.branchPred.btb.misses::IndirectCond            0      0.00%     90.87% # Number of BTB misses (Count)
system.cpu0.branchPred.btb.misses::IndirectUncond      6295828      9.13%    100.00% # Number of BTB misses (Count)
system.cpu0.branchPred.btb.misses::total     68927756                       # Number of BTB misses (Count)
system.cpu0.branchPred.btb.updates::NoBranch            0      0.00%      0.00% # Number of BTB updates (Count)
system.cpu0.branchPred.btb.updates::Return            0      0.00%      0.00% # Number of BTB updates (Count)
system.cpu0.branchPred.btb.updates::CallDirect        94768      8.18%      8.18% # Number of BTB updates (Count)
system.cpu0.branchPred.btb.updates::CallIndirect            0      0.00%      8.18% # Number of BTB updates (Count)
system.cpu0.branchPred.btb.updates::DirectCond       980276     84.58%     92.76% # Number of BTB updates (Count)
system.cpu0.branchPred.btb.updates::DirectUncond        83951      7.24%    100.00% # Number of BTB updates (Count)
system.cpu0.branchPred.btb.updates::IndirectCond            0      0.00%    100.00% # Number of BTB updates (Count)
system.cpu0.branchPred.btb.updates::IndirectUncond            0      0.00%    100.00% # Number of BTB updates (Count)
system.cpu0.branchPred.btb.updates::total      1158995                       # Number of BTB updates (Count)
system.cpu0.branchPred.btb.mispredict::NoBranch            0      0.00%      0.00% # Number of BTB mispredictions. No target found or target wrong. (Count)
system.cpu0.branchPred.btb.mispredict::Return            0      0.00%      0.00% # Number of BTB mispredictions. No target found or target wrong. (Count)
system.cpu0.branchPred.btb.mispredict::CallDirect        94768      8.18%      8.18% # Number of BTB mispredictions. No target found or target wrong. (Count)
system.cpu0.branchPred.btb.mispredict::CallIndirect            0      0.00%      8.18% # Number of BTB mispredictions. No target found or target wrong. (Count)
system.cpu0.branchPred.btb.mispredict::DirectCond       980276     84.58%     92.76% # Number of BTB mispredictions. No target found or target wrong. (Count)
system.cpu0.branchPred.btb.mispredict::DirectUncond        83951      7.24%    100.00% # Number of BTB mispredictions. No target found or target wrong. (Count)
system.cpu0.branchPred.btb.mispredict::IndirectCond            0      0.00%    100.00% # Number of BTB mispredictions. No target found or target wrong. (Count)
system.cpu0.branchPred.btb.mispredict::IndirectUncond            0      0.00%    100.00% # Number of BTB mispredictions. No target found or target wrong. (Count)
system.cpu0.branchPred.btb.mispredict::total      1158995                       # Number of BTB mispredictions. No target found or target wrong. (Count)
system.cpu0.branchPred.btb.power_state.pwrStateResidencyTicks::UNDEFINED 354423976219                       # Cumulative time (in ticks) in various power states (Tick)
system.cpu0.branchPred.indirectBranchPred.lookups      9575221                       # Number of lookups (Count)
system.cpu0.branchPred.indirectBranchPred.hits      8455275                       # Number of hits of a tag (Count)
system.cpu0.branchPred.indirectBranchPred.misses      1119946                       # Number of misses (Count)
system.cpu0.branchPred.indirectBranchPred.targetRecords      1283486                       # Number of targets that where recorded/installed in the cache (Count)
system.cpu0.branchPred.indirectBranchPred.indirectRecords     10858708                       # Number of indirect branches/calls recorded in the indirect hist (Count)
system.cpu0.branchPred.indirectBranchPred.speculativeOverflows            1                       # Number of times more than the allowed capacity for speculative branches/calls where in flight and destroy the path history (Count)
system.cpu0.branchPred.ras.pushes             7188178                       # Number of times a PC was pushed onto the RAS (Count)
system.cpu0.branchPred.ras.pops               7188173                       # Number of times a PC was poped from the RAS (Count)
system.cpu0.branchPred.ras.squashes           1499217                       # Number of times the stack operation was squashed due to wrong speculation. (Count)
system.cpu0.branchPred.ras.used               5688956                       # Number of times the RAS is the provider (Count)
system.cpu0.branchPred.ras.correct            5685202                       # Number of times the RAS is the provider and the prediction is correct (Count)
system.cpu0.branchPred.ras.incorrect             3754                       # Number of times the RAS is the provider and the prediction is wrong (Count)
system.cpu0.commit.commitSquashedInsts       87649365                       # The number of squashed insts skipped by commit (Count)
system.cpu0.commit.commitNonSpecStalls          37089                       # The number of times commit has been forced to stall to communicate backwards (Count)
system.cpu0.commit.branchMispredicts          2645293                       # The number of times a branch was mispredicted (Count)
system.cpu0.commit.numCommittedDist::samples    572770952                       # Number of insts commited each cycle (Count)
system.cpu0.commit.numCommittedDist::mean     1.610930                       # Number of insts commited each cycle (Count)
system.cpu0.commit.numCommittedDist::stdev     2.625253                       # Number of insts commited each cycle (Count)
system.cpu0.commit.numCommittedDist::underflows            0      0.00%      0.00% # Number of insts commited each cycle (Count)
system.cpu0.commit.numCommittedDist::0      347604351     60.69%     60.69% # Number of insts commited each cycle (Count)
system.cpu0.commit.numCommittedDist::1       51655055      9.02%     69.71% # Number of insts commited each cycle (Count)
system.cpu0.commit.numCommittedDist::2       28988150      5.06%     74.77% # Number of insts commited each cycle (Count)
system.cpu0.commit.numCommittedDist::3       45950202      8.02%     82.79% # Number of insts commited each cycle (Count)
system.cpu0.commit.numCommittedDist::4       13029783      2.27%     85.06% # Number of insts commited each cycle (Count)
system.cpu0.commit.numCommittedDist::5       11658207      2.04%     87.10% # Number of insts commited each cycle (Count)
system.cpu0.commit.numCommittedDist::6        9180761      1.60%     88.70% # Number of insts commited each cycle (Count)
system.cpu0.commit.numCommittedDist::7        7918600      1.38%     90.09% # Number of insts commited each cycle (Count)
system.cpu0.commit.numCommittedDist::8       56785843      9.91%    100.00% # Number of insts commited each cycle (Count)
system.cpu0.commit.numCommittedDist::overflows            0      0.00%    100.00% # Number of insts commited each cycle (Count)
system.cpu0.commit.numCommittedDist::min_value            0                       # Number of insts commited each cycle (Count)
system.cpu0.commit.numCommittedDist::max_value            8                       # Number of insts commited each cycle (Count)
system.cpu0.commit.numCommittedDist::total    572770952                       # Number of insts commited each cycle (Count)
system.cpu0.commit.amos                             0                       # Number of atomic instructions committed (Count)
system.cpu0.commit.membars                       9774                       # Number of memory barriers committed (Count)
system.cpu0.commit.functionCalls              5688961                       # Number of function calls committed. (Count)
system.cpu0.commit.committedInstType_0::No_OpClass     10987414      1.19%      1.19% # Class of committed instruction (Count)
system.cpu0.commit.committedInstType_0::IntAlu    673712333     73.02%     74.21% # Class of committed instruction (Count)
system.cpu0.commit.committedInstType_0::IntMult       316040      0.03%     74.24% # Class of committed instruction (Count)
system.cpu0.commit.committedInstType_0::IntDiv       492429      0.05%     74.29% # Class of committed instruction (Count)
system.cpu0.commit.committedInstType_0::FloatAdd      1562010      0.17%     74.46% # Class of committed instruction (Count)
system.cpu0.commit.committedInstType_0::FloatCmp            0      0.00%     74.46% # Class of committed instruction (Count)
system.cpu0.commit.committedInstType_0::FloatCvt           64      0.00%     74.46% # Class of committed instruction (Count)
system.cpu0.commit.committedInstType_0::FloatMult            0      0.00%     74.46% # Class of committed instruction (Count)
system.cpu0.commit.committedInstType_0::FloatMultAcc            0      0.00%     74.46% # Class of committed instruction (Count)
system.cpu0.commit.committedInstType_0::FloatDiv            0      0.00%     74.46% # Class of committed instruction (Count)
system.cpu0.commit.committedInstType_0::FloatMisc            0      0.00%     74.46% # Class of committed instruction (Count)
system.cpu0.commit.committedInstType_0::FloatSqrt            0      0.00%     74.46% # Class of committed instruction (Count)
system.cpu0.commit.committedInstType_0::SimdAdd        17860      0.00%     74.47% # Class of committed instruction (Count)
system.cpu0.commit.committedInstType_0::SimdAddAcc            0      0.00%     74.47% # Class of committed instruction (Count)
system.cpu0.commit.committedInstType_0::SimdAlu      1307005      0.14%     74.61% # Class of committed instruction (Count)
system.cpu0.commit.committedInstType_0::SimdCmp         8072      0.00%     74.61% # Class of committed instruction (Count)
system.cpu0.commit.committedInstType_0::SimdCvt       139624      0.02%     74.62% # Class of committed instruction (Count)
system.cpu0.commit.committedInstType_0::SimdMisc      1624780      0.18%     74.80% # Class of committed instruction (Count)
system.cpu0.commit.committedInstType_0::SimdMult            0      0.00%     74.80% # Class of committed instruction (Count)
system.cpu0.commit.committedInstType_0::SimdMultAcc            0      0.00%     74.80% # Class of committed instruction (Count)
system.cpu0.commit.committedInstType_0::SimdMatMultAcc            0      0.00%     74.80% # Class of committed instruction (Count)
system.cpu0.commit.committedInstType_0::SimdShift         5990      0.00%     74.80% # Class of committed instruction (Count)
system.cpu0.commit.committedInstType_0::SimdShiftAcc            0      0.00%     74.80% # Class of committed instruction (Count)
system.cpu0.commit.committedInstType_0::SimdDiv            0      0.00%     74.80% # Class of committed instruction (Count)
system.cpu0.commit.committedInstType_0::SimdSqrt            0      0.00%     74.80% # Class of committed instruction (Count)
system.cpu0.commit.committedInstType_0::SimdFloatAdd       560451      0.06%     74.86% # Class of committed instruction (Count)
system.cpu0.commit.committedInstType_0::SimdFloatAlu            0      0.00%     74.86% # Class of committed instruction (Count)
system.cpu0.commit.committedInstType_0::SimdFloatCmp            1      0.00%     74.86% # Class of committed instruction (Count)
system.cpu0.commit.committedInstType_0::SimdFloatCvt       640110      0.07%     74.93% # Class of committed instruction (Count)
system.cpu0.commit.committedInstType_0::SimdFloatDiv        66933      0.01%     74.94% # Class of committed instruction (Count)
system.cpu0.commit.committedInstType_0::SimdFloatMisc            0      0.00%     74.94% # Class of committed instruction (Count)
system.cpu0.commit.committedInstType_0::SimdFloatMult       495798      0.05%     74.99% # Class of committed instruction (Count)
system.cpu0.commit.committedInstType_0::SimdFloatMultAcc            0      0.00%     74.99% # Class of committed instruction (Count)
system.cpu0.commit.committedInstType_0::SimdFloatMatMultAcc            0      0.00%     74.99% # Class of committed instruction (Count)
system.cpu0.commit.committedInstType_0::SimdFloatSqrt        10549      0.00%     74.99% # Class of committed instruction (Count)
system.cpu0.commit.committedInstType_0::SimdReduceAdd            0      0.00%     74.99% # Class of committed instruction (Count)
system.cpu0.commit.committedInstType_0::SimdReduceAlu            0      0.00%     74.99% # Class of committed instruction (Count)
system.cpu0.commit.committedInstType_0::SimdReduceCmp            0      0.00%     74.99% # Class of committed instruction (Count)
system.cpu0.commit.committedInstType_0::SimdFloatReduceAdd            0      0.00%     74.99% # Class of committed instruction (Count)
system.cpu0.commit.committedInstType_0::SimdFloatReduceCmp            0      0.00%     74.99% # Class of committed instruction (Count)
system.cpu0.commit.committedInstType_0::SimdAes            0      0.00%     74.99% # Class of committed instruction (Count)
system.cpu0.commit.committedInstType_0::SimdAesMix            0      0.00%     74.99% # Class of committed instruction (Count)
system.cpu0.commit.committedInstType_0::SimdSha1Hash            0      0.00%     74.99% # Class of committed instruction (Count)
system.cpu0.commit.committedInstType_0::SimdSha1Hash2            0      0.00%     74.99% # Class of committed instruction (Count)
system.cpu0.commit.committedInstType_0::SimdSha256Hash            0      0.00%     74.99% # Class of committed instruction (Count)
system.cpu0.commit.committedInstType_0::SimdSha256Hash2            0      0.00%     74.99% # Class of committed instruction (Count)
system.cpu0.commit.committedInstType_0::SimdShaSigma2            0      0.00%     74.99% # Class of committed instruction (Count)
system.cpu0.commit.committedInstType_0::SimdShaSigma3            0      0.00%     74.99% # Class of committed instruction (Count)
system.cpu0.commit.committedInstType_0::SimdPredAlu            0      0.00%     74.99% # Class of committed instruction (Count)
system.cpu0.commit.committedInstType_0::Matrix            0      0.00%     74.99% # Class of committed instruction (Count)
system.cpu0.commit.committedInstType_0::MatrixMov            0      0.00%     74.99% # Class of committed instruction (Count)
system.cpu0.commit.committedInstType_0::MatrixOP            0      0.00%     74.99% # Class of committed instruction (Count)
system.cpu0.commit.committedInstType_0::MemRead    150196765     16.28%     91.27% # Class of committed instruction (Count)
system.cpu0.commit.committedInstType_0::MemWrite     76530210      8.29%     99.56% # Class of committed instruction (Count)
system.cpu0.commit.committedInstType_0::FloatMemRead      1802247      0.20%     99.76% # Class of committed instruction (Count)
system.cpu0.commit.committedInstType_0::FloatMemWrite      2216953      0.24%    100.00% # Class of committed instruction (Count)
system.cpu0.commit.committedInstType_0::IprAccess            0      0.00%    100.00% # Class of committed instruction (Count)
system.cpu0.commit.committedInstType_0::InstPrefetch            0      0.00%    100.00% # Class of committed instruction (Count)
system.cpu0.commit.committedInstType_0::VectorUnitStrideLoad            0      0.00%    100.00% # Class of committed instruction (Count)
system.cpu0.commit.committedInstType_0::VectorUnitStrideStore            0      0.00%    100.00% # Class of committed instruction (Count)
system.cpu0.commit.committedInstType_0::VectorUnitStrideMaskLoad            0      0.00%    100.00% # Class of committed instruction (Count)
system.cpu0.commit.committedInstType_0::VectorUnitStrideMaskStore            0      0.00%    100.00% # Class of committed instruction (Count)
system.cpu0.commit.committedInstType_0::VectorStridedLoad            0      0.00%    100.00% # Class of committed instruction (Count)
system.cpu0.commit.committedInstType_0::VectorStridedStore            0      0.00%    100.00% # Class of committed instruction (Count)
system.cpu0.commit.committedInstType_0::VectorIndexedLoad            0      0.00%    100.00% # Class of committed instruction (Count)
system.cpu0.commit.committedInstType_0::VectorIndexedStore            0      0.00%    100.00% # Class of committed instruction (Count)
system.cpu0.commit.committedInstType_0::VectorUnitStrideFaultOnlyFirstLoad            0      0.00%    100.00% # Class of committed instruction (Count)
system.cpu0.commit.committedInstType_0::VectorWholeRegisterLoad            0      0.00%    100.00% # Class of committed instruction (Count)
system.cpu0.commit.committedInstType_0::VectorWholeRegisterStore            0      0.00%    100.00% # Class of committed instruction (Count)
system.cpu0.commit.committedInstType_0::VectorIntegerArith            0      0.00%    100.00% # Class of committed instruction (Count)
system.cpu0.commit.committedInstType_0::VectorFloatArith            0      0.00%    100.00% # Class of committed instruction (Count)
system.cpu0.commit.committedInstType_0::VectorFloatConvert            0      0.00%    100.00% # Class of committed instruction (Count)
system.cpu0.commit.committedInstType_0::VectorIntegerReduce            0      0.00%    100.00% # Class of committed instruction (Count)
system.cpu0.commit.committedInstType_0::VectorFloatReduce            0      0.00%    100.00% # Class of committed instruction (Count)
system.cpu0.commit.committedInstType_0::VectorMisc            0      0.00%    100.00% # Class of committed instruction (Count)
system.cpu0.commit.committedInstType_0::VectorIntegerExtension            0      0.00%    100.00% # Class of committed instruction (Count)
system.cpu0.commit.committedInstType_0::VectorConfig            0      0.00%    100.00% # Class of committed instruction (Count)
system.cpu0.commit.committedInstType_0::total    922693638                       # Class of committed instruction (Count)
system.cpu0.commit.commitEligibleSamples     56785843                       # number cycles where commit BW limit reached (Cycle)
system.cpu0.commitStats0.numInsts           512223324                       # Number of instructions committed (thread level) (Count)
system.cpu0.commitStats0.numOps             922693638                       # Number of ops (including micro ops) committed (thread level) (Count)
system.cpu0.commitStats0.numInstsNotNOP     512223324                       # Number of instructions committed excluding NOPs or prefetches (Count)
system.cpu0.commitStats0.numOpsNotNOP       922693638                       # Number of Ops (including micro ops) Simulated (Count)
system.cpu0.commitStats0.cpi                 1.211791                       # CPI: cycles per instruction (thread level) ((Cycle/Count))
system.cpu0.commitStats0.ipc                 0.825225                       # IPC: instructions per cycle (thread level) ((Count/Cycle))
system.cpu0.commitStats0.numMemRefs         230746175                       # Number of memory references committed (Count)
system.cpu0.commitStats0.numFpInsts          11191528                       # Number of float instructions (Count)
system.cpu0.commitStats0.numIntInsts        905492428                       # Number of integer instructions (Count)
system.cpu0.commitStats0.numLoadInsts       151999012                       # Number of load instructions (Count)
system.cpu0.commitStats0.numStoreInsts       78747163                       # Number of store instructions (Count)
system.cpu0.commitStats0.numVecInsts                0                       # Number of vector instructions (Count)
system.cpu0.commitStats0.committedInstType::No_OpClass     10987414      1.19%      1.19% # Class of committed instruction. (Count)
system.cpu0.commitStats0.committedInstType::IntAlu    673712333     73.02%     74.21% # Class of committed instruction. (Count)
system.cpu0.commitStats0.committedInstType::IntMult       316040      0.03%     74.24% # Class of committed instruction. (Count)
system.cpu0.commitStats0.committedInstType::IntDiv       492429      0.05%     74.29% # Class of committed instruction. (Count)
system.cpu0.commitStats0.committedInstType::FloatAdd      1562010      0.17%     74.46% # Class of committed instruction. (Count)
system.cpu0.commitStats0.committedInstType::FloatCmp            0      0.00%     74.46% # Class of committed instruction. (Count)
system.cpu0.commitStats0.committedInstType::FloatCvt           64      0.00%     74.46% # Class of committed instruction. (Count)
system.cpu0.commitStats0.committedInstType::FloatMult            0      0.00%     74.46% # Class of committed instruction. (Count)
system.cpu0.commitStats0.committedInstType::FloatMultAcc            0      0.00%     74.46% # Class of committed instruction. (Count)
system.cpu0.commitStats0.committedInstType::FloatDiv            0      0.00%     74.46% # Class of committed instruction. (Count)
system.cpu0.commitStats0.committedInstType::FloatMisc            0      0.00%     74.46% # Class of committed instruction. (Count)
system.cpu0.commitStats0.committedInstType::FloatSqrt            0      0.00%     74.46% # Class of committed instruction. (Count)
system.cpu0.commitStats0.committedInstType::SimdAdd        17860      0.00%     74.47% # Class of committed instruction. (Count)
system.cpu0.commitStats0.committedInstType::SimdAddAcc            0      0.00%     74.47% # Class of committed instruction. (Count)
system.cpu0.commitStats0.committedInstType::SimdAlu      1307005      0.14%     74.61% # Class of committed instruction. (Count)
system.cpu0.commitStats0.committedInstType::SimdCmp         8072      0.00%     74.61% # Class of committed instruction. (Count)
system.cpu0.commitStats0.committedInstType::SimdCvt       139624      0.02%     74.62% # Class of committed instruction. (Count)
system.cpu0.commitStats0.committedInstType::SimdMisc      1624780      0.18%     74.80% # Class of committed instruction. (Count)
system.cpu0.commitStats0.committedInstType::SimdMult            0      0.00%     74.80% # Class of committed instruction. (Count)
system.cpu0.commitStats0.committedInstType::SimdMultAcc            0      0.00%     74.80% # Class of committed instruction. (Count)
system.cpu0.commitStats0.committedInstType::SimdMatMultAcc            0      0.00%     74.80% # Class of committed instruction. (Count)
system.cpu0.commitStats0.committedInstType::SimdShift         5990      0.00%     74.80% # Class of committed instruction. (Count)
system.cpu0.commitStats0.committedInstType::SimdShiftAcc            0      0.00%     74.80% # Class of committed instruction. (Count)
system.cpu0.commitStats0.committedInstType::SimdDiv            0      0.00%     74.80% # Class of committed instruction. (Count)
system.cpu0.commitStats0.committedInstType::SimdSqrt            0      0.00%     74.80% # Class of committed instruction. (Count)
system.cpu0.commitStats0.committedInstType::SimdFloatAdd       560451      0.06%     74.86% # Class of committed instruction. (Count)
system.cpu0.commitStats0.committedInstType::SimdFloatAlu            0      0.00%     74.86% # Class of committed instruction. (Count)
system.cpu0.commitStats0.committedInstType::SimdFloatCmp            1      0.00%     74.86% # Class of committed instruction. (Count)
system.cpu0.commitStats0.committedInstType::SimdFloatCvt       640110      0.07%     74.93% # Class of committed instruction. (Count)
system.cpu0.commitStats0.committedInstType::SimdFloatDiv        66933      0.01%     74.94% # Class of committed instruction. (Count)
system.cpu0.commitStats0.committedInstType::SimdFloatMisc            0      0.00%     74.94% # Class of committed instruction. (Count)
system.cpu0.commitStats0.committedInstType::SimdFloatMult       495798      0.05%     74.99% # Class of committed instruction. (Count)
system.cpu0.commitStats0.committedInstType::SimdFloatMultAcc            0      0.00%     74.99% # Class of committed instruction. (Count)
system.cpu0.commitStats0.committedInstType::SimdFloatMatMultAcc            0      0.00%     74.99% # Class of committed instruction. (Count)
system.cpu0.commitStats0.committedInstType::SimdFloatSqrt        10549      0.00%     74.99% # Class of committed instruction. (Count)
system.cpu0.commitStats0.committedInstType::SimdReduceAdd            0      0.00%     74.99% # Class of committed instruction. (Count)
system.cpu0.commitStats0.committedInstType::SimdReduceAlu            0      0.00%     74.99% # Class of committed instruction. (Count)
system.cpu0.commitStats0.committedInstType::SimdReduceCmp            0      0.00%     74.99% # Class of committed instruction. (Count)
system.cpu0.commitStats0.committedInstType::SimdFloatReduceAdd            0      0.00%     74.99% # Class of committed instruction. (Count)
system.cpu0.commitStats0.committedInstType::SimdFloatReduceCmp            0      0.00%     74.99% # Class of committed instruction. (Count)
system.cpu0.commitStats0.committedInstType::SimdAes            0      0.00%     74.99% # Class of committed instruction. (Count)
system.cpu0.commitStats0.committedInstType::SimdAesMix            0      0.00%     74.99% # Class of committed instruction. (Count)
system.cpu0.commitStats0.committedInstType::SimdSha1Hash            0      0.00%     74.99% # Class of committed instruction. (Count)
system.cpu0.commitStats0.committedInstType::SimdSha1Hash2            0      0.00%     74.99% # Class of committed instruction. (Count)
system.cpu0.commitStats0.committedInstType::SimdSha256Hash            0      0.00%     74.99% # Class of committed instruction. (Count)
system.cpu0.commitStats0.committedInstType::SimdSha256Hash2            0      0.00%     74.99% # Class of committed instruction. (Count)
system.cpu0.commitStats0.committedInstType::SimdShaSigma2            0      0.00%     74.99% # Class of committed instruction. (Count)
system.cpu0.commitStats0.committedInstType::SimdShaSigma3            0      0.00%     74.99% # Class of committed instruction. (Count)
system.cpu0.commitStats0.committedInstType::SimdPredAlu            0      0.00%     74.99% # Class of committed instruction. (Count)
system.cpu0.commitStats0.committedInstType::Matrix            0      0.00%     74.99% # Class of committed instruction. (Count)
system.cpu0.commitStats0.committedInstType::MatrixMov            0      0.00%     74.99% # Class of committed instruction. (Count)
system.cpu0.commitStats0.committedInstType::MatrixOP            0      0.00%     74.99% # Class of committed instruction. (Count)
system.cpu0.commitStats0.committedInstType::MemRead    150196765     16.28%     91.27% # Class of committed instruction. (Count)
system.cpu0.commitStats0.committedInstType::MemWrite     76530210      8.29%     99.56% # Class of committed instruction. (Count)
system.cpu0.commitStats0.committedInstType::FloatMemRead      1802247      0.20%     99.76% # Class of committed instruction. (Count)
system.cpu0.commitStats0.committedInstType::FloatMemWrite      2216953      0.24%    100.00% # Class of committed instruction. (Count)
system.cpu0.commitStats0.committedInstType::IprAccess            0      0.00%    100.00% # Class of committed instruction. (Count)
system.cpu0.commitStats0.committedInstType::InstPrefetch            0      0.00%    100.00% # Class of committed instruction. (Count)
system.cpu0.commitStats0.committedInstType::VectorUnitStrideLoad            0      0.00%    100.00% # Class of committed instruction. (Count)
system.cpu0.commitStats0.committedInstType::VectorUnitStrideStore            0      0.00%    100.00% # Class of committed instruction. (Count)
system.cpu0.commitStats0.committedInstType::VectorUnitStrideMaskLoad            0      0.00%    100.00% # Class of committed instruction. (Count)
system.cpu0.commitStats0.committedInstType::VectorUnitStrideMaskStore            0      0.00%    100.00% # Class of committed instruction. (Count)
system.cpu0.commitStats0.committedInstType::VectorStridedLoad            0      0.00%    100.00% # Class of committed instruction. (Count)
system.cpu0.commitStats0.committedInstType::VectorStridedStore            0      0.00%    100.00% # Class of committed instruction. (Count)
system.cpu0.commitStats0.committedInstType::VectorIndexedLoad            0      0.00%    100.00% # Class of committed instruction. (Count)
system.cpu0.commitStats0.committedInstType::VectorIndexedStore            0      0.00%    100.00% # Class of committed instruction. (Count)
system.cpu0.commitStats0.committedInstType::VectorUnitStrideFaultOnlyFirstLoad            0      0.00%    100.00% # Class of committed instruction. (Count)
system.cpu0.commitStats0.committedInstType::VectorWholeRegisterLoad            0      0.00%    100.00% # Class of committed instruction. (Count)
system.cpu0.commitStats0.committedInstType::VectorWholeRegisterStore            0      0.00%    100.00% # Class of committed instruction. (Count)
system.cpu0.commitStats0.committedInstType::VectorIntegerArith            0      0.00%    100.00% # Class of committed instruction. (Count)
system.cpu0.commitStats0.committedInstType::VectorFloatArith            0      0.00%    100.00% # Class of committed instruction. (Count)
system.cpu0.commitStats0.committedInstType::VectorFloatConvert            0      0.00%    100.00% # Class of committed instruction. (Count)
system.cpu0.commitStats0.committedInstType::VectorIntegerReduce            0      0.00%    100.00% # Class of committed instruction. (Count)
system.cpu0.commitStats0.committedInstType::VectorFloatReduce            0      0.00%    100.00% # Class of committed instruction. (Count)
system.cpu0.commitStats0.committedInstType::VectorMisc            0      0.00%    100.00% # Class of committed instruction. (Count)
system.cpu0.commitStats0.committedInstType::VectorIntegerExtension            0      0.00%    100.00% # Class of committed instruction. (Count)
system.cpu0.commitStats0.committedInstType::VectorConfig            0      0.00%    100.00% # Class of committed instruction. (Count)
system.cpu0.commitStats0.committedInstType::total    922693638                       # Class of committed instruction. (Count)
system.cpu0.commitStats0.committedControl::IsControl     97350651                       # Class of control type instructions committed (Count)
system.cpu0.commitStats0.committedControl::IsDirectControl     83479802                       # Class of control type instructions committed (Count)
system.cpu0.commitStats0.committedControl::IsIndirectControl     13870076                       # Class of control type instructions committed (Count)
system.cpu0.commitStats0.committedControl::IsCondControl     78573724                       # Class of control type instructions committed (Count)
system.cpu0.commitStats0.committedControl::IsUncondControl     18776154                       # Class of control type instructions committed (Count)
system.cpu0.commitStats0.committedControl::IsCall      5688961                       # Class of control type instructions committed (Count)
system.cpu0.commitStats0.committedControl::IsReturn      5688956                       # Class of control type instructions committed (Count)
system.cpu0.dcache.demandHits::cpu0.data    223639447                       # number of demand (read+write) hits (Count)
system.cpu0.dcache.demandHits::total        223639447                       # number of demand (read+write) hits (Count)
system.cpu0.dcache.overallHits::cpu0.data    223639828                       # number of overall hits (Count)
system.cpu0.dcache.overallHits::total       223639828                       # number of overall hits (Count)
system.cpu0.dcache.demandMisses::cpu0.data      2806083                       # number of demand (read+write) misses (Count)
system.cpu0.dcache.demandMisses::total        2806083                       # number of demand (read+write) misses (Count)
system.cpu0.dcache.overallMisses::cpu0.data      2807299                       # number of overall misses (Count)
system.cpu0.dcache.overallMisses::total       2807299                       # number of overall misses (Count)
system.cpu0.dcache.demandMissLatency::cpu0.data 121458264661                       # number of demand (read+write) miss ticks (Tick)
system.cpu0.dcache.demandMissLatency::total 121458264661                       # number of demand (read+write) miss ticks (Tick)
system.cpu0.dcache.overallMissLatency::cpu0.data 121458264661                       # number of overall miss ticks (Tick)
system.cpu0.dcache.overallMissLatency::total 121458264661                       # number of overall miss ticks (Tick)
system.cpu0.dcache.demandAccesses::cpu0.data    226445530                       # number of demand (read+write) accesses (Count)
system.cpu0.dcache.demandAccesses::total    226445530                       # number of demand (read+write) accesses (Count)
system.cpu0.dcache.overallAccesses::cpu0.data    226447127                       # number of overall (read+write) accesses (Count)
system.cpu0.dcache.overallAccesses::total    226447127                       # number of overall (read+write) accesses (Count)
system.cpu0.dcache.demandMissRate::cpu0.data     0.012392                       # miss rate for demand accesses (Ratio)
[...]
system.mem_ctrl.dram.numReads::cpu0.inst       221754                       # Number of read requests responded to by this memory (Count)
system.mem_ctrl.dram.numReads::cpu0.data       687786                       # Number of read requests responded to by this memory (Count)
system.mem_ctrl.dram.numReads::total           909540                       # Number of read requests responded to by this memory (Count)
system.mem_ctrl.dram.numWrites::writebacks       267211                       # Number of write requests responded to by this memory (Count)
system.mem_ctrl.dram.numWrites::total          267211                       # Number of write requests responded to by this memory (Count)
system.mem_ctrl.dram.bwRead::cpu0.inst       40043160                       # Total read bandwidth from this memory ((Byte/Second))
system.mem_ctrl.dram.bwRead::cpu0.data      124196744                       # Total read bandwidth from this memory ((Byte/Second))
system.mem_ctrl.dram.bwRead::total          164239904                       # Total read bandwidth from this memory ((Byte/Second))
system.mem_ctrl.dram.bwInstRead::cpu0.inst     40043160                       # Instruction read bandwidth from this memory ((Byte/Second))
system.mem_ctrl.dram.bwInstRead::total       40043160                       # Instruction read bandwidth from this memory ((Byte/Second))
system.mem_ctrl.dram.bwWrite::writebacks     48251544                       # Write bandwidth from this memory ((Byte/Second))
system.mem_ctrl.dram.bwWrite::total          48251544                       # Write bandwidth from this memory ((Byte/Second))
system.mem_ctrl.dram.bwTotal::writebacks     48251544                       # Total bandwidth to/from this memory ((Byte/Second))
system.mem_ctrl.dram.bwTotal::cpu0.inst      40043160                       # Total bandwidth to/from this memory ((Byte/Second))
system.mem_ctrl.dram.bwTotal::cpu0.data     124196744                       # Total bandwidth to/from this memory ((Byte/Second))
system.mem_ctrl.dram.bwTotal::total         212491448                       # Total bandwidth to/from this memory ((Byte/Second))
system.mem_ctrl.dram.readBursts                905544                       # Number of DRAM read bursts (Count)
system.mem_ctrl.dram.writeBursts               266936                       # Number of DRAM write bursts (Count)
system.mem_ctrl.dram.perBankRdBursts::0         64864                       # Per bank write bursts (Count)
system.mem_ctrl.dram.perBankRdBursts::1         65736                       # Per bank write bursts (Count)
system.mem_ctrl.dram.perBankRdBursts::2         46579                       # Per bank write bursts (Count)
system.mem_ctrl.dram.perBankRdBursts::3         53249                       # Per bank write bursts (Count)
system.mem_ctrl.dram.perBankRdBursts::4         61478                       # Per bank write bursts (Count)
system.mem_ctrl.dram.perBankRdBursts::5         45699                       # Per bank write bursts (Count)
system.mem_ctrl.dram.perBankRdBursts::6         51764                       # Per bank write bursts (Count)
system.mem_ctrl.dram.perBankRdBursts::7         65822                       # Per bank write bursts (Count)
system.mem_ctrl.dram.perBankRdBursts::8         69346                       # Per bank write bursts (Count)
system.mem_ctrl.dram.perBankRdBursts::9         51680                       # Per bank write bursts (Count)
system.mem_ctrl.dram.perBankRdBursts::10        54320                       # Per bank write bursts (Count)
system.mem_ctrl.dram.perBankRdBursts::11        51509                       # Per bank write bursts (Count)
system.mem_ctrl.dram.perBankRdBursts::12        66598                       # Per bank write bursts (Count)
system.mem_ctrl.dram.perBankRdBursts::13        51322                       # Per bank write bursts (Count)
system.mem_ctrl.dram.perBankRdBursts::14        52246                       # Per bank write bursts (Count)
system.mem_ctrl.dram.perBankRdBursts::15        53332                       # Per bank write bursts (Count)
system.mem_ctrl.dram.perBankWrBursts::0         15432                       # Per bank write bursts (Count)
system.mem_ctrl.dram.perBankWrBursts::1         19191                       # Per bank write bursts (Count)
system.mem_ctrl.dram.perBankWrBursts::2         13846                       # Per bank write bursts (Count)
system.mem_ctrl.dram.perBankWrBursts::3         17217                       # Per bank write bursts (Count)
system.mem_ctrl.dram.perBankWrBursts::4         17922                       # Per bank write bursts (Count)
system.mem_ctrl.dram.perBankWrBursts::5         14733                       # Per bank write bursts (Count)
system.mem_ctrl.dram.perBankWrBursts::6         16654                       # Per bank write bursts (Count)
system.mem_ctrl.dram.perBankWrBursts::7         18245                       # Per bank write bursts (Count)
system.mem_ctrl.dram.perBankWrBursts::8         19452                       # Per bank write bursts (Count)
system.mem_ctrl.dram.perBankWrBursts::9         16725                       # Per bank write bursts (Count)
system.mem_ctrl.dram.perBankWrBursts::10        15032                       # Per bank write bursts (Count)
system.mem_ctrl.dram.perBankWrBursts::11        18067                       # Per bank write bursts (Count)
system.mem_ctrl.dram.perBankWrBursts::12        19180                       # Per bank write bursts (Count)
system.mem_ctrl.dram.perBankWrBursts::13        15945                       # Per bank write bursts (Count)
system.mem_ctrl.dram.perBankWrBursts::14        16199                       # Per bank write bursts (Count)
system.mem_ctrl.dram.perBankWrBursts::15        13096                       # Per bank write bursts (Count)
system.mem_ctrl.dram.totQLat              14040026181                       # Total ticks spent queuing (Tick)
system.mem_ctrl.dram.totBusLat             4527720000                       # Total ticks spent in databus transfers (Tick)
system.mem_ctrl.dram.totMemAccLat         31018976181                       # Total ticks spent from burst creation until serviced by the DRAM (Tick)
system.mem_ctrl.dram.avgQLat                 15504.52                       # Average queueing delay per DRAM burst ((Tick/Count))
system.mem_ctrl.dram.avgBusLat                5000.00                       # Average bus latency per DRAM burst ((Tick/Count))
system.mem_ctrl.dram.avgMemAccLat            34254.52                       # Average memory access latency per DRAM burst ((Tick/Count))
system.mem_ctrl.dram.readRowHits               593568                       # Number of row buffer hits during reads (Count)
system.mem_ctrl.dram.writeRowHits              126823                       # Number of row buffer hits during writes (Count)
system.mem_ctrl.dram.readRowHitRate             65.55                       # Row buffer hit rate for reads (Ratio)
system.mem_ctrl.dram.writeRowHitRate            47.51                       # Row buffer hit rate for writes (Ratio)
system.mem_ctrl.dram.bytesPerActivate::samples       452082                       # Bytes accessed per row activation (Byte)
system.mem_ctrl.dram.bytesPerActivate::mean   165.983764                       # Bytes accessed per row activation (Byte)
system.mem_ctrl.dram.bytesPerActivate::gmean   114.758790                       # Bytes accessed per row activation (Byte)
system.mem_ctrl.dram.bytesPerActivate::stdev   194.533054                       # Bytes accessed per row activation (Byte)
system.mem_ctrl.dram.bytesPerActivate::0-127       240018     53.09%     53.09% # Bytes accessed per row activation (Byte)
system.mem_ctrl.dram.bytesPerActivate::128-255       129771     28.71%     81.80% # Bytes accessed per row activation (Byte)
system.mem_ctrl.dram.bytesPerActivate::256-383        36932      8.17%     89.97% # Bytes accessed per row activation (Byte)
system.mem_ctrl.dram.bytesPerActivate::384-511        15279      3.38%     93.35% # Bytes accessed per row activation (Byte)
system.mem_ctrl.dram.bytesPerActivate::512-639         8392      1.86%     95.20% # Bytes accessed per row activation (Byte)
system.mem_ctrl.dram.bytesPerActivate::640-767         5264      1.16%     96.37% # Bytes accessed per row activation (Byte)
system.mem_ctrl.dram.bytesPerActivate::768-895         3542      0.78%     97.15% # Bytes accessed per row activation (Byte)
system.mem_ctrl.dram.bytesPerActivate::896-1023         2459      0.54%     97.69% # Bytes accessed per row activation (Byte)
system.mem_ctrl.dram.bytesPerActivate::1024-1151        10425      2.31%    100.00% # Bytes accessed per row activation (Byte)
system.mem_ctrl.dram.bytesPerActivate::total       452082                       # Bytes accessed per row activation (Byte)
system.mem_ctrl.dram.dramBytesRead           57954816                       # Total bytes read (Byte)
system.mem_ctrl.dram.dramBytesWritten        17083904                       # Total bytes written (Byte)
system.mem_ctrl.dram.avgRdBW               163.518328                       # Average DRAM read bandwidth in MiBytes/s ((Byte/Second))
system.mem_ctrl.dram.avgWrBW                48.201886                       # Average DRAM write bandwidth in MiBytes/s ((Byte/Second))
system.mem_ctrl.dram.peakBW                  12800.00                       # Theoretical peak bandwidth in MiByte/s ((Byte/Second))
system.mem_ctrl.dram.busUtil                     1.65                       # Data bus utilization in percentage (Ratio)
system.mem_ctrl.dram.busUtilRead                 1.28                       # Data bus utilization in percentage for reads (Ratio)
system.mem_ctrl.dram.busUtilWrite                0.38                       # Data bus utilization in percentage for writes (Ratio)
system.mem_ctrl.dram.pageHitRate                61.44                       # Row buffer hit rate, read and write combined (Ratio)
system.mem_ctrl.dram.power_state.pwrStateResidencyTicks::UNDEFINED 354423976219                       # Cumulative time (in ticks) in various power states (Tick)
system.mem_ctrl.dram.rank0.actEnergy       1640350740                       # Energy for activate commands per rank (pJ) (Joule)
system.mem_ctrl.dram.rank0.preEnergy        871851915                       # Energy for precharge commands per rank (pJ) (Joule)
system.mem_ctrl.dram.rank0.readEnergy      3250063740                       # Energy for read commands per rank (pJ) (Joule)
system.mem_ctrl.dram.rank0.writeEnergy      695512800                       # Energy for write commands per rank (pJ) (Joule)
system.mem_ctrl.dram.rank0.refreshEnergy 27977798160.000004                       # Energy for refresh commands per rank (pJ) (Joule)
system.mem_ctrl.dram.rank0.actBackEnergy  41332045770                       # Energy for active background per rank (pJ) (Joule)
system.mem_ctrl.dram.rank0.preBackEnergy 101292873600                       # Energy for precharge background per rank (pJ) (Joule)
system.mem_ctrl.dram.rank0.actPowerDownEnergy            0                       # Energy for active power-down per rank (pJ) (Joule)
system.mem_ctrl.dram.rank0.prePowerDownEnergy            0                       # Energy for precharge power-down per rank (pJ) (Joule)
system.mem_ctrl.dram.rank0.selfRefreshEnergy            0                       # Energy for self refresh per rank (pJ) (Joule)
system.mem_ctrl.dram.rank0.totalEnergy   177060496725                       # Total energy per rank (pJ) (Joule)
system.mem_ctrl.dram.rank0.averagePower    499.572570                       # Core power per rank (mW) (Watt)
system.mem_ctrl.dram.rank0.totalIdleTime            0                       # Total Idle time Per DRAM Rank (Tick)
system.mem_ctrl.dram.rank0.pwrStateTime::IDLE 262960184183                       # Time in different power states (Tick)
system.mem_ctrl.dram.rank0.pwrStateTime::REF  11834940000                       # Time in different power states (Tick)
system.mem_ctrl.dram.rank0.pwrStateTime::SREF            0                       # Time in different power states (Tick)
system.mem_ctrl.dram.rank0.pwrStateTime::PRE_PDN            0                       # Time in different power states (Tick)
system.mem_ctrl.dram.rank0.pwrStateTime::ACT  79628852036                       # Time in different power states (Tick)
system.mem_ctrl.dram.rank0.pwrStateTime::ACT_PDN            0                       # Time in different power states (Tick)
system.mem_ctrl.dram.rank1.actEnergy       1587564720                       # Energy for activate commands per rank (pJ) (Joule)
system.mem_ctrl.dram.rank1.preEnergy        843799275                       # Energy for precharge commands per rank (pJ) (Joule)
system.mem_ctrl.dram.rank1.readEnergy      3215520420                       # Energy for read commands per rank (pJ) (Joule)
system.mem_ctrl.dram.rank1.writeEnergy      697893120                       # Energy for write commands per rank (pJ) (Joule)
system.mem_ctrl.dram.rank1.refreshEnergy 27977798160.000004                       # Energy for refresh commands per rank (pJ) (Joule)
system.mem_ctrl.dram.rank1.actBackEnergy  39811278360                       # Energy for active background per rank (pJ) (Joule)
system.mem_ctrl.dram.rank1.preBackEnergy 102573519840                       # Energy for precharge background per rank (pJ) (Joule)
system.mem_ctrl.dram.rank1.actPowerDownEnergy            0                       # Energy for active power-down per rank (pJ) (Joule)
system.mem_ctrl.dram.rank1.prePowerDownEnergy            0                       # Energy for precharge power-down per rank (pJ) (Joule)
system.mem_ctrl.dram.rank1.selfRefreshEnergy            0                       # Energy for self refresh per rank (pJ) (Joule)
system.mem_ctrl.dram.rank1.totalEnergy   176707373895                       # Total energy per rank (pJ) (Joule)
system.mem_ctrl.dram.rank1.averagePower    498.576241                       # Core power per rank (mW) (Watt)
system.mem_ctrl.dram.rank1.totalIdleTime            0                       # Total Idle time Per DRAM Rank (Tick)
system.mem_ctrl.dram.rank1.pwrStateTime::IDLE 266303511184                       # Time in different power states (Tick)
system.mem_ctrl.dram.rank1.pwrStateTime::REF  11834940000                       # Time in different power states (Tick)
system.mem_ctrl.dram.rank1.pwrStateTime::SREF            0                       # Time in different power states (Tick)
system.mem_ctrl.dram.rank1.pwrStateTime::PRE_PDN            0                       # Time in different power states (Tick)
system.mem_ctrl.dram.rank1.pwrStateTime::ACT  76285525035                       # Time in different power states (Tick)
system.mem_ctrl.dram.rank1.pwrStateTime::ACT_PDN            0                       # Time in different power states (Tick)
system.mem_ctrl.power_state.pwrStateResidencyTicks::UNDEFINED 354423976219                       # Cumulative time (in ticks) in various power states (Tick)
system.membus.transDist::ReadResp              826766                       # Transaction distribution (Count)
system.membus.transDist::WritebackDirty        267211                       # Transaction distribution (Count)
system.membus.transDist::CleanEvict            637627                       # Transaction distribution (Count)
system.membus.transDist::UpgradeReq               446                       # Transaction distribution (Count)
system.membus.transDist::ReadExReq              82774                       # Transaction distribution (Count)
system.membus.transDist::ReadExResp             82774                       # Transaction distribution (Count)
system.membus.transDist::ReadSharedReq         826766                       # Transaction distribution (Count)
system.membus.pktCount_system.l2cache.mem_side_port::system.mem_ctrl.port      2724364                       # Packet count per connected requestor and responder (Count)
system.membus.pktCount_system.l2cache.mem_side_port::total      2724364                       # Packet count per connected requestor and responder (Count)
system.membus.pktCount::total                 2724364                       # Packet count per connected requestor and responder (Count)
system.membus.pktSize_system.l2cache.mem_side_port::system.mem_ctrl.port     75312064                       # Cumulative packet size per connected requestor and responder (Byte)
system.membus.pktSize_system.l2cache.mem_side_port::total     75312064                       # Cumulative packet size per connected requestor and responder (Byte)
system.membus.pktSize::total                 75312064                       # Cumulative packet size per connected requestor and responder (Byte)
system.membus.snoops                               33                       # Total snoops (Count)
system.membus.snoopTraffic                          0                       # Total snoop traffic (Byte)
system.membus.snoopFanout::samples             909986                       # Request fanout histogram (Count)
system.membus.snoopFanout::mean                     0                       # Request fanout histogram (Count)
system.membus.snoopFanout::stdev                    0                       # Request fanout histogram (Count)
system.membus.snoopFanout::underflows               0      0.00%      0.00% # Request fanout histogram (Count)
system.membus.snoopFanout::0                   909986    100.00%    100.00% # Request fanout histogram (Count)
system.membus.snoopFanout::1                        0      0.00%    100.00% # Request fanout histogram (Count)
system.membus.snoopFanout::overflows                0      0.00%    100.00% # Request fanout histogram (Count)
system.membus.snoopFanout::min_value                0                       # Request fanout histogram (Count)
system.membus.snoopFanout::max_value                0                       # Request fanout histogram (Count)
system.membus.snoopFanout::total               909986                       # Request fanout histogram (Count)
system.membus.power_state.pwrStateResidencyTicks::UNDEFINED 354423976219                       # Cumulative time (in ticks) in various power states (Tick)
system.membus.reqLayer8.occupancy          1646555585                       # Layer occupancy (ticks) (Tick)
system.membus.reqLayer8.utilization               0.0                       # Layer utilization (Ratio)
system.membus.respLayer0.occupancy         2772491688                       # Layer occupancy (ticks) (Tick)
system.membus.respLayer0.utilization              0.0                       # Layer utilization (Ratio)
system.membus.snoop_filter.totRequests        1814824                       # Total number of requests made to the snoop filter. (Count)
system.membus.snoop_filter.hitSingleRequests       905898                       # Number of requests hitting in the snoop filter with a single holder of the requested data. (Count)
system.membus.snoop_filter.hitMultiRequests            0                       # Number of requests hitting in the snoop filter with multiple (>1) holders of the requested data. (Count)
system.membus.snoop_filter.totSnoops                0                       # Total number of snoops made to the snoop filter. (Count)
system.membus.snoop_filter.hitSingleSnoops            0                       # Number of snoops hitting in the snoop filter with a single holder of the requested data. (Count)
system.membus.snoop_filter.hitMultiSnoops            0                       # Number of snoops hitting in the snoop filter with multiple (>1) holders of the requested data. (Count)
system.workload.inst.arm                            0                       # number of arm instructions executed (Count)
system.workload.inst.quiesce                        0                       # number of quiesce instructions executed (Count)

---------- End Simulation Statistics   ----------
