
---------- Begin Simulation Statistics ----------
simSeconds                                   0.003686                       # Number of seconds simulated (Second)
simTicks                                   3685856244                       # Number of ticks simulated (Tick)
finalTick                                  3685856244                       # Number of ticks from beginning of simulation (restored from checkpoints and never reset) (Tick)
simFreq                                  1000000000000                       # The number of ticks per simulated second ((Tick/Second))
hostSeconds                                     44.21                       # Real time elapsed on the host (Second)
hostTickRate                                 83362476                       # The number of ticks simulated per host second (ticks/s) ((Tick/Second))
hostMemory                                    8522808                       # Number of bytes of host memory used (Byte)
simInsts                                      9397384                       # Number of instructions simulated (Count)
simOps                                        9641198                       # Number of ops (including micro ops) simulated (Count)
hostInstRate                                   212538                       # Simulator instruction rate (inst/s) ((Count/Second))
hostOpRate                                     218053                       # Simulator op (including micro ops) rate (op/s) ((Count/Second))
system.clk_domain.clock                           588                       # Clock period in ticks (Tick)
system.clk_domain.voltage_domain.voltage     1.100000                       # Voltage in Volts (Volt)
system.cpu.numCycles                          6268464                       # Number of cpu cycles simulated (Cycle)
system.cpu.numWorkItemsStarted                      0                       # Number of work items this cpu started (Count)
system.cpu.numWorkItemsCompleted                    0                       # Number of work items this cpu completed (Count)
system.cpu.instsAdded                        10456849                       # Number of instructions added to the IQ (excludes non-spec) (Count)
system.cpu.nonSpecInstsAdded                      294                       # Number of non-speculative instructions added to the IQ (Count)
system.cpu.instsIssued                        9984941                       # Number of instructions issued (Count)
system.cpu.squashedInstsIssued                   8642                       # Number of squashed instructions issued (Count)
system.cpu.squashedInstsExamined               815944                       # Number of squashed instructions iterated over during squash; mainly for profiling (Count)
system.cpu.squashedOperandsExamined            781501                       # Number of squashed operands that are examined and possibly removed from graph (Count)
system.cpu.squashedNonSpecRemoved                  37                       # Number of squashed non-spec instructions that were removed (Count)
system.cpu.numIssuedDist::samples             6227881                       # Number of insts issued each cycle (Count)
system.cpu.numIssuedDist::mean               1.603265                       # Number of insts issued each cycle (Count)
system.cpu.numIssuedDist::stdev              0.849809                       # Number of insts issued each cycle (Count)
system.cpu.numIssuedDist::underflows                0      0.00%      0.00% # Number of insts issued each cycle (Count)
system.cpu.numIssuedDist::0                    547806      8.80%      8.80% # Number of insts issued each cycle (Count)
system.cpu.numIssuedDist::1                   2277660     36.57%     45.37% # Number of insts issued each cycle (Count)
system.cpu.numIssuedDist::2                   2553236     41.00%     86.36% # Number of insts issued each cycle (Count)
system.cpu.numIssuedDist::3                    795907     12.78%     99.14% # Number of insts issued each cycle (Count)
system.cpu.numIssuedDist::4                     53272      0.86%    100.00% # Number of insts issued each cycle (Count)
system.cpu.numIssuedDist::5                         0      0.00%    100.00% # Number of insts issued each cycle (Count)
system.cpu.numIssuedDist::6                         0      0.00%    100.00% # Number of insts issued each cycle (Count)
system.cpu.numIssuedDist::7                         0      0.00%    100.00% # Number of insts issued each cycle (Count)
system.cpu.numIssuedDist::8                         0      0.00%    100.00% # Number of insts issued each cycle (Count)
system.cpu.numIssuedDist::overflows                 0      0.00%    100.00% # Number of insts issued each cycle (Count)
system.cpu.numIssuedDist::min_value                 0                       # Number of insts issued each cycle (Count)
system.cpu.numIssuedDist::max_value                 4                       # Number of insts issued each cycle (Count)
system.cpu.numIssuedDist::total               6227881                       # Number of insts issued each cycle (Count)
system.cpu.statFuBusy::No_OpClass             1985116      1.89%      1.89% # attempts to use FU when none available (Count)
system.cpu.statFuBusy::IntAlu                 1985116      1.89%      3.77% # attempts to use FU when none available (Count)
system.cpu.statFuBusy::IntMult                1985116      1.89%      5.66% # attempts to use FU when none available (Count)
system.cpu.statFuBusy::IntDiv                 1985116      1.89%      7.55% # attempts to use FU when none available (Count)
system.cpu.statFuBusy::FloatAdd               1985116      1.89%      9.43% # attempts to use FU when none available (Count)
system.cpu.statFuBusy::FloatCmp               1985116      1.89%     11.32% # attempts to use FU when none available (Count)
system.cpu.statFuBusy::FloatCvt               1985116      1.89%     13.21% # attempts to use FU when none available (Count)
system.cpu.statFuBusy::FloatMult              1985116      1.89%     15.09% # attempts to use FU when none available (Count)
system.cpu.statFuBusy::FloatMultAcc           1985116      1.89%     16.98% # attempts to use FU when none available (Count)
system.cpu.statFuBusy::FloatDiv               1985116      1.89%     18.87% # attempts to use FU when none available (Count)
system.cpu.statFuBusy::FloatMisc              1985116      1.89%     20.75% # attempts to use FU when none available (Count)
system.cpu.statFuBusy::FloatSqrt              1985116      1.89%     22.64% # attempts to use FU when none available (Count)
system.cpu.statFuBusy::SimdAdd                1985116      1.89%     24.53% # attempts to use FU when none available (Count)
system.cpu.statFuBusy::SimdAddAcc             1985116      1.89%     26.42% # attempts to use FU when none available (Count)
system.cpu.statFuBusy::SimdAlu                1985116      1.89%     28.30% # attempts to use FU when none available (Count)
system.cpu.statFuBusy::SimdCmp                1985116      1.89%     30.19% # attempts to use FU when none available (Count)
system.cpu.statFuBusy::SimdCvt                1985116      1.89%     32.08% # attempts to use FU when none available (Count)
system.cpu.statFuBusy::SimdMisc               1985116      1.89%     33.96% # attempts to use FU when none available (Count)
system.cpu.statFuBusy::SimdMult               1985116      1.89%     35.85% # attempts to use FU when none available (Count)
system.cpu.statFuBusy::SimdMultAcc            1985116      1.89%     37.74% # attempts to use FU when none available (Count)
system.cpu.statFuBusy::SimdShift              1985116      1.89%     39.62% # attempts to use FU when none available (Count)
system.cpu.statFuBusy::SimdShiftAcc           1985116      1.89%     41.51% # attempts to use FU when none available (Count)
system.cpu.statFuBusy::SimdDiv                1985116      1.89%     43.40% # attempts to use FU when none available (Count)
system.cpu.statFuBusy::SimdSqrt               1985116      1.89%     45.28% # attempts to use FU when none available (Count)
system.cpu.statFuBusy::SimdFloatAdd           1985116      1.89%     47.17% # attempts to use FU when none available (Count)
system.cpu.statFuBusy::SimdFloatAlu           1985116      1.89%     49.06% # attempts to use FU when none available (Count)
system.cpu.statFuBusy::SimdFloatCmp           1985116      1.89%     50.94% # attempts to use FU when none available (Count)
system.cpu.statFuBusy::SimdFloatCvt           1985116      1.89%     52.83% # attempts to use FU when none available (Count)
system.cpu.statFuBusy::SimdFloatDiv           1985116      1.89%     54.72% # attempts to use FU when none available (Count)
system.cpu.statFuBusy::SimdFloatMisc          1985116      1.89%     56.60% # attempts to use FU when none available (Count)
system.cpu.statFuBusy::SimdFloatMult          1985116      1.89%     58.49% # attempts to use FU when none available (Count)
system.cpu.statFuBusy::SimdFloatMultAcc       1985116      1.89%     60.38% # attempts to use FU when none available (Count)
system.cpu.statFuBusy::SimdFloatSqrt          1985116      1.89%     62.26% # attempts to use FU when none available (Count)
system.cpu.statFuBusy::SimdReduceAdd          1985116      1.89%     64.15% # attempts to use FU when none available (Count)
system.cpu.statFuBusy::SimdReduceAlu          1985116      1.89%     66.04% # attempts to use FU when none available (Count)
system.cpu.statFuBusy::SimdReduceCmp          1985116      1.89%     67.92% # attempts to use FU when none available (Count)
system.cpu.statFuBusy::SimdFloatReduceAdd      1985116      1.89%     69.81% # attempts to use FU when none available (Count)
system.cpu.statFuBusy::SimdFloatReduceCmp      1985116      1.89%     71.70% # attempts to use FU when none available (Count)
system.cpu.statFuBusy::SimdAes                1985116      1.89%     73.58% # attempts to use FU when none available (Count)
system.cpu.statFuBusy::SimdAesMix             1985116      1.89%     75.47% # attempts to use FU when none available (Count)
system.cpu.statFuBusy::SimdSha1Hash           1985116      1.89%     77.36% # attempts to use FU when none available (Count)
system.cpu.statFuBusy::SimdSha1Hash2          1985116      1.89%     79.25% # attempts to use FU when none available (Count)
system.cpu.statFuBusy::SimdSha256Hash         1985116      1.89%     81.13% # attempts to use FU when none available (Count)
system.cpu.statFuBusy::SimdSha256Hash2        1985116      1.89%     83.02% # attempts to use FU when none available (Count)
system.cpu.statFuBusy::SimdShaSigma2          1985116      1.89%     84.91% # attempts to use FU when none available (Count)
system.cpu.statFuBusy::SimdShaSigma3          1985116      1.89%     86.79% # attempts to use FU when none available (Count)
system.cpu.statFuBusy::SimdPredAlu            1985116      1.89%     88.68% # attempts to use FU when none available (Count)
system.cpu.statFuBusy::MemRead                1985116      1.89%     90.57% # attempts to use FU when none available (Count)
system.cpu.statFuBusy::MemWrite               1985116      1.89%     92.45% # attempts to use FU when none available (Count)
system.cpu.statFuBusy::FloatMemRead           1985116      1.89%     94.34% # attempts to use FU when none available (Count)
system.cpu.statFuBusy::FloatMemWrite          1985116      1.89%     96.23% # attempts to use FU when none available (Count)
system.cpu.statFuBusy::IprAccess              1985116      1.89%     98.11% # attempts to use FU when none available (Count)
system.cpu.statFuBusy::InstPrefetch           1985116      1.89%    100.00% # attempts to use FU when none available (Count)
system.cpu.statIssuedInstType_0::No_OpClass      9984941      1.89%      1.89% # Number of instructions issued per FU type, per thread (Count)
system.cpu.statIssuedInstType_0::IntAlu       9984941      1.89%      3.77% # Number of instructions issued per FU type, per thread (Count)
system.cpu.statIssuedInstType_0::IntMult      9984941      1.89%      5.66% # Number of instructions issued per FU type, per thread (Count)
system.cpu.statIssuedInstType_0::IntDiv       9984941      1.89%      7.55% # Number of instructions issued per FU type, per thread (Count)
system.cpu.statIssuedInstType_0::FloatAdd      9984941      1.89%      9.43% # Number of instructions issued per FU type, per thread (Count)
system.cpu.statIssuedInstType_0::FloatCmp      9984941      1.89%     11.32% # Number of instructions issued per FU type, per thread (Count)
system.cpu.statIssuedInstType_0::FloatCvt      9984941      1.89%     13.21% # Number of instructions issued per FU type, per thread (Count)
system.cpu.statIssuedInstType_0::FloatMult      9984941      1.89%     15.09% # Number of instructions issued per FU type, per thread (Count)
system.cpu.statIssuedInstType_0::FloatMultAcc      9984941      1.89%     16.98% # Number of instructions issued per FU type, per thread (Count)
system.cpu.statIssuedInstType_0::FloatDiv      9984941      1.89%     18.87% # Number of instructions issued per FU type, per thread (Count)
system.cpu.statIssuedInstType_0::FloatMisc      9984941      1.89%     20.75% # Number of instructions issued per FU type, per thread (Count)
system.cpu.statIssuedInstType_0::FloatSqrt      9984941      1.89%     22.64% # Number of instructions issued per FU type, per thread (Count)
system.cpu.statIssuedInstType_0::SimdAdd      9984941      1.89%     24.53% # Number of instructions issued per FU type, per thread (Count)
system.cpu.statIssuedInstType_0::SimdAddAcc      9984941      1.89%     26.42% # Number of instructions issued per FU type, per thread (Count)
system.cpu.statIssuedInstType_0::SimdAlu      9984941      1.89%     28.30% # Number of instructions issued per FU type, per thread (Count)
system.cpu.statIssuedInstType_0::SimdCmp      9984941      1.89%     30.19% # Number of instructions issued per FU type, per thread (Count)
system.cpu.statIssuedInstType_0::SimdCvt      9984941      1.89%     32.08% # Number of instructions issued per FU type, per thread (Count)
system.cpu.statIssuedInstType_0::SimdMisc      9984941      1.89%     33.96% # Number of instructions issued per FU type, per thread (Count)
system.cpu.statIssuedInstType_0::SimdMult      9984941      1.89%     35.85% # Number of instructions issued per FU type, per thread (Count)
system.cpu.statIssuedInstType_0::SimdMultAcc      9984941      1.89%     37.74% # Number of instructions issued per FU type, per thread (Count)
system.cpu.statIssuedInstType_0::SimdShift      9984941      1.89%     39.62% # Number of instructions issued per FU type, per thread (Count)
system.cpu.statIssuedInstType_0::SimdShiftAcc      9984941      1.89%     41.51% # Number of instructions issued per FU type, per thread (Count)
system.cpu.statIssuedInstType_0::SimdDiv      9984941      1.89%     43.40% # Number of instructions issued per FU type, per thread (Count)
system.cpu.statIssuedInstType_0::SimdSqrt      9984941      1.89%     45.28% # Number of instructions issued per FU type, per thread (Count)
system.cpu.statIssuedInstType_0::SimdFloatAdd      9984941      1.89%     47.17% # Number of instructions issued per FU type, per thread (Count)
system.cpu.statIssuedInstType_0::SimdFloatAlu      9984941      1.89%     49.06% # Number of instructions issued per FU type, per thread (Count)
system.cpu.statIssuedInstType_0::SimdFloatCmp      9984941      1.89%     50.94% # Number of instructions issued per FU type, per thread (Count)
system.cpu.statIssuedInstType_0::SimdFloatCvt      9984941      1.89%     52.83% # Number of instructions issued per FU type, per thread (Count)
system.cpu.statIssuedInstType_0::SimdFloatDiv      9984941      1.89%     54.72% # Number of instructions issued per FU type, per thread (Count)
system.cpu.statIssuedInstType_0::SimdFloatMisc      9984941      1.89%     56.60% # Number of instructions issued per FU type, per thread (Count)
system.cpu.statIssuedInstType_0::SimdFloatMult      9984941      1.89%     58.49% # Number of instructions issued per FU type, per thread (Count)
system.cpu.statIssuedInstType_0::SimdFloatMultAcc      9984941      1.89%     60.38% # Number of instructions issued per FU type, per thread (Count)
system.cpu.statIssuedInstType_0::SimdFloatSqrt      9984941      1.89%     62.26% # Number of instructions issued per FU type, per thread (Count)
system.cpu.statIssuedInstType_0::SimdReduceAdd      9984941      1.89%     64.15% # Number of instructions issued per FU type, per thread (Count)
system.cpu.statIssuedInstType_0::SimdReduceAlu      9984941      1.89%     66.04% # Number of instructions issued per FU type, per thread (Count)
system.cpu.statIssuedInstType_0::SimdReduceCmp      9984941      1.89%     67.92% # Number of instructions issued per FU type, per thread (Count)
system.cpu.statIssuedInstType_0::SimdFloatReduceAdd      9984941      1.89%     69.81% # Number of instructions issued per FU type, per thread (Count)
system.cpu.statIssuedInstType_0::SimdFloatReduceCmp      9984941      1.89%     71.70% # Number of instructions issued per FU type, per thread (Count)
system.cpu.statIssuedInstType_0::SimdAes      9984941      1.89%     73.58% # Number of instructions issued per FU type, per thread (Count)
system.cpu.statIssuedInstType_0::SimdAesMix      9984941      1.89%     75.47% # Number of instructions issued per FU type, per thread (Count)
system.cpu.statIssuedInstType_0::SimdSha1Hash      9984941      1.89%     77.36% # Number of instructions issued per FU type, per thread (Count)
system.cpu.statIssuedInstType_0::SimdSha1Hash2      9984941      1.89%     79.25% # Number of instructions issued per FU type, per thread (Count)
system.cpu.statIssuedInstType_0::SimdSha256Hash      9984941      1.89%     81.13% # Number of instructions issued per FU type, per thread (Count)
system.cpu.statIssuedInstType_0::SimdSha256Hash2      9984941      1.89%     83.02% # Number of instructions issued per FU type, per thread (Count)
system.cpu.statIssuedInstType_0::SimdShaSigma2      9984941      1.89%     84.91% # Number of instructions issued per FU type, per thread (Count)
system.cpu.statIssuedInstType_0::SimdShaSigma3      9984941      1.89%     86.79% # Number of instructions issued per FU type, per thread (Count)
system.cpu.statIssuedInstType_0::SimdPredAlu      9984941      1.89%     88.68% # Number of instructions issued per FU type, per thread (Count)
system.cpu.statIssuedInstType_0::MemRead      9984941      1.89%     90.57% # Number of instructions issued per FU type, per thread (Count)
system.cpu.statIssuedInstType_0::MemWrite      9984941      1.89%     92.45% # Number of instructions issued per FU type, per thread (Count)
system.cpu.statIssuedInstType_0::FloatMemRead      9984941      1.89%     94.34% # Number of instructions issued per FU type, per thread (Count)
system.cpu.statIssuedInstType_0::FloatMemWrite      9984941      1.89%     96.23% # Number of instructions issued per FU type, per thread (Count)
system.cpu.statIssuedInstType_0::IprAccess      9984941      1.89%     98.11% # Number of instructions issued per FU type, per thread (Count)
system.cpu.statIssuedInstType_0::InstPrefetch      9984941      1.89%    100.00% # Number of instructions issued per FU type, per thread (Count)
system.cpu.statIssuedInstType_0::total      529201873                       # Number of instructions issued per FU type, per thread (Count)
system.cpu.issueRate                         1.592885                       # Inst issue rate ((Count/Cycle))
system.cpu.fuBusy                             1985116                       # FU busy when requested (Count)
system.cpu.fuBusyRate                        0.198811                       # FU busy rate (busy events/executed inst) ((Count/Count))
system.cpu.intInstQueueReads                 28189701                       # Number of integer instruction queue reads (Count)
system.cpu.intInstQueueWrites                11272319                       # Number of integer instruction queue writes (Count)
system.cpu.intInstQueueWakeupAccesses         9924306                       # Number of integer instruction queue wakeup accesses (Count)
system.cpu.fpInstQueueReads                         0                       # Number of floating instruction queue reads (Count)
system.cpu.fpInstQueueWrites                        0                       # Number of floating instruction queue writes (Count)
system.cpu.fpInstQueueWakeupAccesses                0                       # Number of floating instruction queue wakeup accesses (Count)
system.cpu.vecInstQueueReads                     1820                       # Number of vector instruction queue reads (Count)
system.cpu.vecInstQueueWrites                     937                       # Number of vector instruction queue writes (Count)
system.cpu.vecInstQueueWakeupAccesses             769                       # Number of vector instruction queue wakeup accesses (Count)
system.cpu.intAluAccesses                    11968879                       # Number of integer alu accesses (Count)
system.cpu.fpAluAccesses                            0                       # Number of floating point alu accesses (Count)
system.cpu.vecAluAccesses                         960                       # Number of vector alu accesses (Count)
system.cpu.idleCycles                               0                       # Number of cycles IEW is idle (Cycle)
system.cpu.squashCycles                         24559                       # Number of cycles IEW is squashing (Cycle)
system.cpu.blockCycles                          84791                       # Number of cycles IEW is blocking (Cycle)
system.cpu.unblockCycles                           16                       # Number of cycles IEW is unblocking (Cycle)
system.cpu.dispatchedInsts                   10457231                       # Number of instructions dispatched to IQ (Count)
system.cpu.dispSquashedInsts                        0                       # Number of squashed instructions skipped by dispatch (Count)
system.cpu.dispLoadInsts                      3420289                       # Number of dispatched load instructions (Count)
system.cpu.dispStoreInsts                     1767714                       # Number of dispatched store instructions (Count)
system.cpu.dispNonSpecInsts                       293                       # Number of dispatched non-speculative instructions (Count)
system.cpu.iqFullEvents                             7                       # Number of times the IQ has become full, causing a stall (Count)
system.cpu.lsqFullEvents                            3                       # Number of times the LSQ has become full, causing a stall (Count)
system.cpu.memOrderViolationEvents                169                       # Number of memory order violations (Count)
system.cpu.predictedTakenIncorrect               7112                       # Number of branches that were predicted taken incorrectly (Count)
system.cpu.predictedNotTakenIncorrect           17350                       # Number of branches that were predicted not taken incorrectly (Count)
system.cpu.branchMispredicts                    24462                       # Number of branch mispredicts detected at execute (Count)
system.cpu.numInsts                           9934883                       # Number of executed instructions (Count)
system.cpu.numLoadInsts                       3250509                       # Number of load instructions executed (Count)
system.cpu.numSquashedInsts                     50058                       # Number of squashed instructions skipped in execute (Count)
system.cpu.numSwp                                   0                       # Number of swp insts executed (Count)
system.cpu.numNop                                  88                       # Number of nop insts executed (Count)
system.cpu.numRefs                            4895709                       # Number of memory reference insts executed (Count)
system.cpu.numBranches                         951073                       # Number of branches executed (Count)
system.cpu.numStoreInsts                      1645200                       # Number of stores executed (Count)
system.cpu.numRate                           1.584899                       # Inst execution rate ((Count/Cycle))
system.cpu.instsToCommit                      9933425                       # Cumulative count of insts sent to commit (Count)
system.cpu.writebackCount                     9925075                       # Cumulative count of insts written-back (Count)
system.cpu.producerInst                       7141706                       # Number of instructions producing a value (Count)
system.cpu.consumerInst                       8973501                       # Number of instructions consuming a value (Count)
system.cpu.wbRate                            1.583334                       # Insts written-back per cycle ((Count/Cycle))
system.cpu.wbFanout                          0.795866                       # Average fanout of values written-back ((Count/Count))
system.cpu.timesIdled                             507                       # Number of times that the entire CPU went into an idle state and unscheduled itself (Count)
system.cpu.idleCycles                           40583                       # Total number of cycles that the CPU has spent unscheduled due to idling (Cycle)
system.cpu.committedInsts                     9397384                       # Number of Instructions Simulated (Count)
system.cpu.committedOps                       9641198                       # Number of Ops (including micro ops) Simulated (Count)
system.cpu.cpi                               0.667044                       # CPI: Cycles Per Instruction ((Cycle/Count))
system.cpu.totalCpi                          0.667044                       # CPI: Total CPI of All Threads ((Cycle/Count))
system.cpu.ipc                               1.499153                       # IPC: Instructions Per Cycle ((Count/Cycle))
system.cpu.totalIpc                          1.499153                       # IPC: Total IPC of All Threads ((Count/Cycle))
system.cpu.intRegfileReads                   11647537                       # Number of integer regfile reads (Count)
system.cpu.intRegfileWrites                   7519109                       # Number of integer regfile writes (Count)
system.cpu.vecRegfileReads                        802                       # number of vector regfile reads (Count)
system.cpu.vecRegfileWrites                       514                       # number of vector regfile writes (Count)
system.cpu.ccRegfileReads                     2139222                       # number of cc regfile reads (Count)
system.cpu.ccRegfileWrites                    2141515                       # number of cc regfile writes (Count)
system.cpu.miscRegfileReads                  27494219                       # number of misc regfile reads (Count)
system.cpu.miscRegfileWrites                      158                       # number of misc regfile writes (Count)
system.cpu.MemDepUnit__0.insertedLoads        3420289                       # Number of loads inserted to the mem dependence unit. (Count)
system.cpu.MemDepUnit__0.insertedStores       1767714                       # Number of stores inserted to the mem dependence unit. (Count)
system.cpu.MemDepUnit__0.conflictingLoads      2452704                       # Number of conflicting loads. (Count)
system.cpu.MemDepUnit__0.conflictingStores       984348                       # Number of conflicting stores. (Count)
system.cpu.MemDepUnit__1.insertedLoads              0                       # Number of loads inserted to the mem dependence unit. (Count)
system.cpu.MemDepUnit__1.insertedStores             0                       # Number of stores inserted to the mem dependence unit. (Count)
system.cpu.MemDepUnit__1.conflictingLoads            0                       # Number of conflicting loads. (Count)
system.cpu.MemDepUnit__1.conflictingStores            0                       # Number of conflicting stores. (Count)
system.cpu.MemDepUnit__2.insertedLoads              0                       # Number of loads inserted to the mem dependence unit. (Count)
system.cpu.MemDepUnit__2.insertedStores             0                       # Number of stores inserted to the mem dependence unit. (Count)
system.cpu.MemDepUnit__2.conflictingLoads            0                       # Number of conflicting loads. (Count)
system.cpu.MemDepUnit__2.conflictingStores            0                       # Number of conflicting stores. (Count)
system.cpu.MemDepUnit__3.insertedLoads              0                       # Number of loads inserted to the mem dependence unit. (Count)
system.cpu.MemDepUnit__3.insertedStores             0                       # Number of stores inserted to the mem dependence unit. (Count)
system.cpu.MemDepUnit__3.conflictingLoads            0                       # Number of conflicting loads. (Count)
system.cpu.MemDepUnit__3.conflictingStores            0                       # Number of conflicting stores. (Count)
system.cpu.branchPred.lookups                 1099994                       # Number of BP lookups (Count)
system.cpu.branchPred.condPredicted            845927                       # Number of conditional branches predicted (Count)
system.cpu.branchPred.condIncorrect             24690                       # Number of conditional branches incorrect (Count)
system.cpu.branchPred.BTBLookups               575529                       # Number of BTB lookups (Count)
system.cpu.branchPred.BTBHits                  574900                       # Number of BTB hits (Count)
system.cpu.branchPred.BTBHitRatio            0.998907                       # BTB Hit Ratio (Ratio)
system.cpu.branchPred.RASUsed                  107569                       # Number of times the RAS was used to get a target. (Count)
system.cpu.branchPred.RASIncorrect                  0                       # Number of incorrect RAS predictions. (Count)
system.cpu.branchPred.indirectLookups           54550                       # Number of indirect predictor lookups. (Count)
system.cpu.branchPred.indirectHits              54131                       # Number of indirect target hits. (Count)
system.cpu.branchPred.indirectMisses              419                       # Number of indirect misses. (Count)
system.cpu.branchPred.indirectMispredicted          139                       # Number of mispredicted indirect branches. (Count)
system.cpu.commit.commitSquashedInsts          772714                       # The number of squashed insts skipped by commit (Count)
system.cpu.commit.commitNonSpecStalls             257                       # The number of times commit has been forced to stall to communicate backwards (Count)
system.cpu.commit.branchMispredicts             24369                       # The number of times a branch was mispredicted (Count)
system.cpu.commit.numCommittedDist::samples      6118716                       # Number of insts commited each cycle (Count)
system.cpu.commit.numCommittedDist::mean     1.575693                       # Number of insts commited each cycle (Count)
system.cpu.commit.numCommittedDist::stdev     2.159869                       # Number of insts commited each cycle (Count)
system.cpu.commit.numCommittedDist::underflows            0      0.00%      0.00% # Number of insts commited each cycle (Count)
system.cpu.commit.numCommittedDist::0         2286425     37.37%     37.37% # Number of insts commited each cycle (Count)
system.cpu.commit.numCommittedDist::1         2209190     36.11%     73.47% # Number of insts commited each cycle (Count)
system.cpu.commit.numCommittedDist::2          245021      4.00%     77.48% # Number of insts commited each cycle (Count)
system.cpu.commit.numCommittedDist::3          597003      9.76%     87.23% # Number of insts commited each cycle (Count)
system.cpu.commit.numCommittedDist::4          109654      1.79%     89.03% # Number of insts commited each cycle (Count)
system.cpu.commit.numCommittedDist::5           30946      0.51%     89.53% # Number of insts commited each cycle (Count)
system.cpu.commit.numCommittedDist::6           73699      1.20%     90.74% # Number of insts commited each cycle (Count)
system.cpu.commit.numCommittedDist::7          418784      6.84%     97.58% # Number of insts commited each cycle (Count)
system.cpu.commit.numCommittedDist::8          147994      2.42%    100.00% # Number of insts commited each cycle (Count)
system.cpu.commit.numCommittedDist::overflows            0      0.00%    100.00% # Number of insts commited each cycle (Count)
system.cpu.commit.numCommittedDist::min_value            0                       # Number of insts commited each cycle (Count)
system.cpu.commit.numCommittedDist::max_value            8                       # Number of insts commited each cycle (Count)
system.cpu.commit.numCommittedDist::total      6118716                       # Number of insts commited each cycle (Count)
system.cpu.commit.instsCommitted              9397407                       # Number of instructions committed (Count)
system.cpu.commit.opsCommitted                9641221                       # Number of ops (including micro ops) committed (Count)
system.cpu.commit.memRefs                     4771417                       # Number of memory references committed (Count)
system.cpu.commit.loads                       3162094                       # Number of loads committed (Count)
system.cpu.commit.amos                             46                       # Number of atomic instructions committed (Count)
system.cpu.commit.membars                          51                       # Number of memory barriers committed (Count)
system.cpu.commit.branches                     924166                       # Number of branches committed (Count)
system.cpu.commit.vectorInstructions              739                       # Number of committed Vector instructions. (Count)
system.cpu.commit.floating                          0                       # Number of committed floating point instructions. (Count)
system.cpu.commit.integer                     8929121                       # Number of committed integer instructions. (Count)
system.cpu.commit.functionCalls                105544                       # Number of function calls committed. (Count)
system.cpu.commit.committedInstType_0::No_OpClass      9641221      1.89%      1.89% # Class of committed instruction (Count)
system.cpu.commit.committedInstType_0::IntAlu      9641221      1.89%      3.77% # Class of committed instruction (Count)
system.cpu.commit.committedInstType_0::IntMult      9641221      1.89%      5.66% # Class of committed instruction (Count)
system.cpu.commit.committedInstType_0::IntDiv      9641221      1.89%      7.55% # Class of committed instruction (Count)
system.cpu.commit.committedInstType_0::FloatAdd      9641221      1.89%      9.43% # Class of committed instruction (Count)
system.cpu.commit.committedInstType_0::FloatCmp      9641221      1.89%     11.32% # Class of committed instruction (Count)
system.cpu.commit.committedInstType_0::FloatCvt      9641221      1.89%     13.21% # Class of committed instruction (Count)
system.cpu.commit.committedInstType_0::FloatMult      9641221      1.89%     15.09% # Class of committed instruction (Count)
system.cpu.commit.committedInstType_0::FloatMultAcc      9641221      1.89%     16.98% # Class of committed instruction (Count)
system.cpu.commit.committedInstType_0::FloatDiv      9641221      1.89%     18.87% # Class of committed instruction (Count)
system.cpu.commit.committedInstType_0::FloatMisc      9641221      1.89%     20.75% # Class of committed instruction (Count)
system.cpu.commit.committedInstType_0::FloatSqrt      9641221      1.89%     22.64% # Class of committed instruction (Count)
system.cpu.commit.committedInstType_0::SimdAdd      9641221      1.89%     24.53% # Class of committed instruction (Count)
system.cpu.commit.committedInstType_0::SimdAddAcc      9641221      1.89%     26.42% # Class of committed instruction (Count)
system.cpu.commit.committedInstType_0::SimdAlu      9641221      1.89%     28.30% # Class of committed instruction (Count)
system.cpu.commit.committedInstType_0::SimdCmp      9641221      1.89%     30.19% # Class of committed instruction (Count)
system.cpu.commit.committedInstType_0::SimdCvt      9641221      1.89%     32.08% # Class of committed instruction (Count)
system.cpu.commit.committedInstType_0::SimdMisc      9641221      1.89%     33.96% # Class of committed instruction (Count)
system.cpu.commit.committedInstType_0::SimdMult      9641221      1.89%     35.85% # Class of committed instruction (Count)
system.cpu.commit.committedInstType_0::SimdMultAcc      9641221      1.89%     37.74% # Class of committed instruction (Count)
system.cpu.commit.committedInstType_0::SimdShift      9641221      1.89%     39.62% # Class of committed instruction (Count)
system.cpu.commit.committedInstType_0::SimdShiftAcc      9641221      1.89%     41.51% # Class of committed instruction (Count)
system.cpu.commit.committedInstType_0::SimdDiv      9641221      1.89%     43.40% # Class of committed instruction (Count)
system.cpu.commit.committedInstType_0::SimdSqrt      9641221      1.89%     45.28% # Class of committed instruction (Count)
system.cpu.commit.committedInstType_0::SimdFloatAdd      9641221      1.89%     47.17% # Class of committed instruction (Count)
system.cpu.commit.committedInstType_0::SimdFloatAlu      9641221      1.89%     49.06% # Class of committed instruction (Count)
system.cpu.commit.committedInstType_0::SimdFloatCmp      9641221      1.89%     50.94% # Class of committed instruction (Count)
system.cpu.commit.committedInstType_0::SimdFloatCvt      9641221      1.89%     52.83% # Class of committed instruction (Count)
system.cpu.commit.committedInstType_0::SimdFloatDiv      9641221      1.89%     54.72% # Class of committed instruction (Count)
system.cpu.commit.committedInstType_0::SimdFloatMisc      9641221      1.89%     56.60% # Class of committed instruction (Count)
system.cpu.commit.committedInstType_0::SimdFloatMult      9641221      1.89%     58.49% # Class of committed instruction (Count)
system.cpu.commit.committedInstType_0::SimdFloatMultAcc      9641221      1.89%     60.38% # Class of committed instruction (Count)
system.cpu.commit.committedInstType_0::SimdFloatSqrt      9641221      1.89%     62.26% # Class of committed instruction (Count)
system.cpu.commit.committedInstType_0::SimdReduceAdd      9641221      1.89%     64.15% # Class of committed instruction (Count)
system.cpu.commit.committedInstType_0::SimdReduceAlu      9641221      1.89%     66.04% # Class of committed instruction (Count)
system.cpu.commit.committedInstType_0::SimdReduceCmp      9641221      1.89%     67.92% # Class of committed instruction (Count)
system.cpu.commit.committedInstType_0::SimdFloatReduceAdd      9641221      1.89%     69.81% # Class of committed instruction (Count)
system.cpu.commit.committedInstType_0::SimdFloatReduceCmp      9641221      1.89%     71.70% # Class of committed instruction (Count)
system.cpu.commit.committedInstType_0::SimdAes      9641221      1.89%     73.58% # Class of committed instruction (Count)
system.cpu.commit.committedInstType_0::SimdAesMix      9641221      1.89%     75.47% # Class of committed instruction (Count)
system.cpu.commit.committedInstType_0::SimdSha1Hash      9641221      1.89%     77.36% # Class of committed instruction (Count)
system.cpu.commit.committedInstType_0::SimdSha1Hash2      9641221      1.89%     79.25% # Class of committed instruction (Count)
system.cpu.commit.committedInstType_0::SimdSha256Hash      9641221      1.89%     81.13% # Class of committed instruction (Count)
system.cpu.commit.committedInstType_0::SimdSha256Hash2      9641221      1.89%     83.02% # Class of committed instruction (Count)
system.cpu.commit.committedInstType_0::SimdShaSigma2      9641221      1.89%     84.91% # Class of committed instruction (Count)
system.cpu.commit.committedInstType_0::SimdShaSigma3      9641221      1.89%     86.79% # Class of committed instruction (Count)
system.cpu.commit.committedInstType_0::SimdPredAlu      9641221      1.89%     88.68% # Class of committed instruction (Count)
system.cpu.commit.committedInstType_0::MemRead      9641221      1.89%     90.57% # Class of committed instruction (Count)
system.cpu.commit.committedInstType_0::MemWrite      9641221      1.89%     92.45% # Class of committed instruction (Count)
system.cpu.commit.committedInstType_0::FloatMemRead      9641221      1.89%     94.34% # Class of committed instruction (Count)
system.cpu.commit.committedInstType_0::FloatMemWrite      9641221      1.89%     96.23% # Class of committed instruction (Count)
system.cpu.commit.committedInstType_0::IprAccess      9641221      1.89%     98.11% # Class of committed instruction (Count)
system.cpu.commit.committedInstType_0::InstPrefetch      9641221      1.89%    100.00% # Class of committed instruction (Count)
system.cpu.commit.committedInstType_0::total    510984713                       # Class of committed instruction (Count)
system.cpu.commit.commitEligibleSamples        147994                       # number cycles where commit BW limit reached (Cycle)
system.cpu.dcache.demandHits::writebacks      2734251                       # number of demand (read+write) hits (Count)
system.cpu.dcache.demandHits::functional      2734251                       # number of demand (read+write) hits (Count)
system.cpu.dcache.demandHits::interrupt       2734251                       # number of demand (read+write) hits (Count)
system.cpu.dcache.demandHits::cpu.mmu.dtb_walker      2734251                       # number of demand (read+write) hits (Count)
system.cpu.dcache.demandHits::cpu.mmu.itb_walker      2734251                       # number of demand (read+write) hits (Count)
system.cpu.dcache.demandHits::cpu.mmu.stage2_dtb_walker      2734251                       # number of demand (read+write) hits (Count)
system.cpu.dcache.demandHits::cpu.mmu.stage2_itb_walker      2734251                       # number of demand (read+write) hits (Count)
system.cpu.dcache.demandHits::cpu.inst        2734251                       # number of demand (read+write) hits (Count)
system.cpu.dcache.demandHits::cpu.data        2734251                       # number of demand (read+write) hits (Count)
system.cpu.dcache.demandHits::l2cache.prefetcher      2734251                       # number of demand (read+write) hits (Count)
system.cpu.dcache.demandHits::total          27342510                       # number of demand (read+write) hits (Count)
system.cpu.dcache.overallHits::writebacks      2734251                       # number of overall hits (Count)
system.cpu.dcache.overallHits::functional      2734251                       # number of overall hits (Count)
system.cpu.dcache.overallHits::interrupt      2734251                       # number of overall hits (Count)
system.cpu.dcache.overallHits::cpu.mmu.dtb_walker      2734251                       # number of overall hits (Count)
system.cpu.dcache.overallHits::cpu.mmu.itb_walker      2734251                       # number of overall hits (Count)
system.cpu.dcache.overallHits::cpu.mmu.stage2_dtb_walker      2734251                       # number of overall hits (Count)
system.cpu.dcache.overallHits::cpu.mmu.stage2_itb_walker      2734251                       # number of overall hits (Count)
system.cpu.dcache.overallHits::cpu.inst       2734251                       # number of overall hits (Count)
system.cpu.dcache.overallHits::cpu.data       2734251                       # number of overall hits (Count)
system.cpu.dcache.overallHits::l2cache.prefetcher      2734251                       # number of overall hits (Count)
system.cpu.dcache.overallHits::total         27342510                       # number of overall hits (Count)
system.cpu.dcache.demandMisses::writebacks          810                       # number of demand (read+write) misses (Count)
system.cpu.dcache.demandMisses::functional          810                       # number of demand (read+write) misses (Count)
system.cpu.dcache.demandMisses::interrupt          810                       # number of demand (read+write) misses (Count)
system.cpu.dcache.demandMisses::cpu.mmu.dtb_walker          810                       # number of demand (read+write) misses (Count)
system.cpu.dcache.demandMisses::cpu.mmu.itb_walker          810                       # number of demand (read+write) misses (Count)
system.cpu.dcache.demandMisses::cpu.mmu.stage2_dtb_walker          810                       # number of demand (read+write) misses (Count)
system.cpu.dcache.demandMisses::cpu.mmu.stage2_itb_walker          810                       # number of demand (read+write) misses (Count)
system.cpu.dcache.demandMisses::cpu.inst          810                       # number of demand (read+write) misses (Count)
system.cpu.dcache.demandMisses::cpu.data          810                       # number of demand (read+write) misses (Count)
system.cpu.dcache.demandMisses::l2cache.prefetcher          810                       # number of demand (read+write) misses (Count)
system.cpu.dcache.demandMisses::total            8100                       # number of demand (read+write) misses (Count)
system.cpu.dcache.overallMisses::writebacks          810                       # number of overall misses (Count)
system.cpu.dcache.overallMisses::functional          810                       # number of overall misses (Count)
system.cpu.dcache.overallMisses::interrupt          810                       # number of overall misses (Count)
system.cpu.dcache.overallMisses::cpu.mmu.dtb_walker          810                       # number of overall misses (Count)
system.cpu.dcache.overallMisses::cpu.mmu.itb_walker          810                       # number of overall misses (Count)
system.cpu.dcache.overallMisses::cpu.mmu.stage2_dtb_walker          810                       # number of overall misses (Count)
system.cpu.dcache.overallMisses::cpu.mmu.stage2_itb_walker          810                       # number of overall misses (Count)
system.cpu.dcache.overallMisses::cpu.inst          810                       # number of overall misses (Count)
system.cpu.dcache.overallMisses::cpu.data          810                       # number of overall misses (Count)
system.cpu.dcache.overallMisses::l2cache.prefetcher          810                       # number of overall misses (Count)
system.cpu.dcache.overallMisses::total           8100                       # number of overall misses (Count)
system.cpu.dcache.demandMissLatency::writebacks     45092509                       # number of demand (read+write) miss ticks (Tick)
system.cpu.dcache.demandMissLatency::functional     45092509                       # number of demand (read+write) miss ticks (Tick)
system.cpu.dcache.demandMissLatency::interrupt     45092509                       # number of demand (read+write) miss ticks (Tick)
system.cpu.dcache.demandMissLatency::cpu.mmu.dtb_walker     45092509                       # number of demand (read+write) miss ticks (Tick)
system.cpu.dcache.demandMissLatency::cpu.mmu.itb_walker     45092509                       # number of demand (read+write) miss ticks (Tick)
system.cpu.dcache.demandMissLatency::cpu.mmu.stage2_dtb_walker     45092509                       # number of demand (read+write) miss ticks (Tick)
system.cpu.dcache.demandMissLatency::cpu.mmu.stage2_itb_walker     45092509                       # number of demand (read+write) miss ticks (Tick)
system.cpu.dcache.demandMissLatency::cpu.inst     45092509                       # number of demand (read+write) miss ticks (Tick)
system.cpu.dcache.demandMissLatency::cpu.data     45092509                       # number of demand (read+write) miss ticks (Tick)
system.cpu.dcache.demandMissLatency::l2cache.prefetcher     45092509                       # number of demand (read+write) miss ticks (Tick)
system.cpu.dcache.demandMissLatency::total    450925090                       # number of demand (read+write) miss ticks (Tick)
system.cpu.dcache.overallMissLatency::writebacks     45092509                       # number of overall miss ticks (Tick)
system.cpu.dcache.overallMissLatency::functional     45092509                       # number of overall miss ticks (Tick)
system.cpu.dcache.overallMissLatency::interrupt     45092509                       # number of overall miss ticks (Tick)
system.cpu.dcache.overallMissLatency::cpu.mmu.dtb_walker     45092509                       # number of overall miss ticks (Tick)
system.cpu.dcache.overallMissLatency::cpu.mmu.itb_walker     45092509                       # number of overall miss ticks (Tick)
system.cpu.dcache.overallMissLatency::cpu.mmu.stage2_dtb_walker     45092509                       # number of overall miss ticks (Tick)
system.cpu.dcache.overallMissLatency::cpu.mmu.stage2_itb_walker     45092509                       # number of overall miss ticks (Tick)
system.cpu.dcache.overallMissLatency::cpu.inst     45092509                       # number of overall miss ticks (Tick)
system.cpu.dcache.overallMissLatency::cpu.data     45092509                       # number of overall miss ticks (Tick)
system.cpu.dcache.overallMissLatency::l2cache.prefetcher     45092509                       # number of overall miss ticks (Tick)
system.cpu.dcache.overallMissLatency::total    450925090                       # number of overall miss ticks (Tick)
system.cpu.dcache.demandAccesses::writebacks      2735061                       # number of demand (read+write) accesses (Count)
system.cpu.dcache.demandAccesses::functional      2735061                       # number of demand (read+write) accesses (Count)
system.cpu.dcache.demandAccesses::interrupt      2735061                       # number of demand (read+write) accesses (Count)
system.cpu.dcache.demandAccesses::cpu.mmu.dtb_walker      2735061                       # number of demand (read+write) accesses (Count)
system.cpu.dcache.demandAccesses::cpu.mmu.itb_walker      2735061                       # number of demand (read+write) accesses (Count)
system.cpu.dcache.demandAccesses::cpu.mmu.stage2_dtb_walker      2735061                       # number of demand (read+write) accesses (Count)
system.cpu.dcache.demandAccesses::cpu.mmu.stage2_itb_walker      2735061                       # number of demand (read+write) accesses (Count)
system.cpu.dcache.demandAccesses::cpu.inst      2735061                       # number of demand (read+write) accesses (Count)
system.cpu.dcache.demandAccesses::cpu.data      2735061                       # number of demand (read+write) accesses (Count)
system.cpu.dcache.demandAccesses::l2cache.prefetcher      2735061                       # number of demand (read+write) accesses (Count)
system.cpu.dcache.demandAccesses::total      27350610                       # number of demand (read+write) accesses (Count)
system.cpu.dcache.overallAccesses::writebacks      2735061                       # number of overall (read+write) accesses (Count)
system.cpu.dcache.overallAccesses::functional      2735061                       # number of overall (read+write) accesses (Count)
system.cpu.dcache.overallAccesses::interrupt      2735061                       # number of overall (read+write) accesses (Count)
system.cpu.dcache.overallAccesses::cpu.mmu.dtb_walker      2735061                       # number of overall (read+write) accesses (Count)
system.cpu.dcache.overallAccesses::cpu.mmu.itb_walker      2735061                       # number of overall (read+write) accesses (Count)
system.cpu.dcache.overallAccesses::cpu.mmu.stage2_dtb_walker      2735061                       # number of overall (read+write) accesses (Count)
system.cpu.dcache.overallAccesses::cpu.mmu.stage2_itb_walker      2735061                       # number of overall (read+write) accesses (Count)
system.cpu.dcache.overallAccesses::cpu.inst      2735061                       # number of overall (read+write) accesses (Count)
system.cpu.dcache.overallAccesses::cpu.data      2735061                       # number of overall (read+write) accesses (Count)
system.cpu.dcache.overallAccesses::l2cache.prefetcher      2735061                       # number of overall (read+write) accesses (Count)
system.cpu.dcache.overallAccesses::total     27350610                       # number of overall (read+write) accesses (Count)
system.cpu.dcache.demandMissRate::writebacks     0.000296                       # miss rate for demand accesses (Ratio)
system.cpu.dcache.demandMissRate::functional     0.000296                       # miss rate for demand accesses (Ratio)
system.cpu.dcache.demandMissRate::interrupt     0.000296                       # miss rate for demand accesses (Ratio)
system.cpu.dcache.demandMissRate::cpu.mmu.dtb_walker     0.000296                       # miss rate for demand accesses (Ratio)
system.cpu.dcache.demandMissRate::cpu.mmu.itb_walker     0.000296                       # miss rate for demand accesses (Ratio)
system.cpu.dcache.demandMissRate::cpu.mmu.stage2_dtb_walker     0.000296                       # miss rate for demand accesses (Ratio)
system.cpu.dcache.demandMissRate::cpu.mmu.stage2_itb_walker     0.000296                       # miss rate for demand accesses (Ratio)
system.cpu.dcache.demandMissRate::cpu.inst     0.000296                       # miss rate for demand accesses (Ratio)
system.cpu.dcache.demandMissRate::cpu.data     0.000296                       # miss rate for demand accesses (Ratio)
system.cpu.dcache.demandMissRate::l2cache.prefetcher     0.000296                       # miss rate for demand accesses (Ratio)
system.cpu.dcache.demandMissRate::total      0.000296                       # miss rate for demand accesses (Ratio)
system.cpu.dcache.overallMissRate::writebacks     0.000296                       # miss rate for overall accesses (Ratio)
system.cpu.dcache.overallMissRate::functional     0.000296                       # miss rate for overall accesses (Ratio)
system.cpu.dcache.overallMissRate::interrupt     0.000296                       # miss rate for overall accesses (Ratio)
system.cpu.dcache.overallMissRate::cpu.mmu.dtb_walker     0.000296                       # miss rate for overall accesses (Ratio)
system.cpu.dcache.overallMissRate::cpu.mmu.itb_walker     0.000296                       # miss rate for overall accesses (Ratio)
system.cpu.dcache.overallMissRate::cpu.mmu.stage2_dtb_walker     0.000296                       # miss rate for overall accesses (Ratio)
system.cpu.dcache.overallMissRate::cpu.mmu.stage2_itb_walker     0.000296                       # miss rate for overall accesses (Ratio)
system.cpu.dcache.overallMissRate::cpu.inst     0.000296                       # miss rate for overall accesses (Ratio)
system.cpu.dcache.overallMissRate::cpu.data     0.000296                       # miss rate for overall accesses (Ratio)
system.cpu.dcache.overallMissRate::l2cache.prefetcher     0.000296                       # miss rate for overall accesses (Ratio)
system.cpu.dcache.overallMissRate::total     0.000296                       # miss rate for overall accesses (Ratio)
system.cpu.dcache.demandAvgMissLatency::writebacks 55669.764198                       # average overall miss latency ((Cycle/Count))
system.cpu.dcache.demandAvgMissLatency::functional 55669.764198                       # average overall miss latency ((Cycle/Count))
system.cpu.dcache.demandAvgMissLatency::interrupt 55669.764198                       # average overall miss latency ((Cycle/Count))
system.cpu.dcache.demandAvgMissLatency::cpu.mmu.dtb_walker 55669.764198                       # average overall miss latency ((Cycle/Count))
system.cpu.dcache.demandAvgMissLatency::cpu.mmu.itb_walker 55669.764198                       # average overall miss latency ((Cycle/Count))
system.cpu.dcache.demandAvgMissLatency::cpu.mmu.stage2_dtb_walker 55669.764198                       # average overall miss latency ((Cycle/Count))
system.cpu.dcache.demandAvgMissLatency::cpu.mmu.stage2_itb_walker 55669.764198                       # average overall miss latency ((Cycle/Count))
system.cpu.dcache.demandAvgMissLatency::cpu.inst 55669.764198                       # average overall miss latency ((Cycle/Count))
system.cpu.dcache.demandAvgMissLatency::cpu.data 55669.764198                       # average overall miss latency ((Cycle/Count))
system.cpu.dcache.demandAvgMissLatency::l2cache.prefetcher 55669.764198                       # average overall miss latency ((Cycle/Count))
system.cpu.dcache.demandAvgMissLatency::total 55669.764198                       # average overall miss latency ((Cycle/Count))
system.cpu.dcache.overallAvgMissLatency::writebacks 55669.764198                       # average overall miss latency ((Cycle/Count))
system.cpu.dcache.overallAvgMissLatency::functional 55669.764198                       # average overall miss latency ((Cycle/Count))
system.cpu.dcache.overallAvgMissLatency::interrupt 55669.764198                       # average overall miss latency ((Cycle/Count))
system.cpu.dcache.overallAvgMissLatency::cpu.mmu.dtb_walker 55669.764198                       # average overall miss latency ((Cycle/Count))
system.cpu.dcache.overallAvgMissLatency::cpu.mmu.itb_walker 55669.764198                       # average overall miss latency ((Cycle/Count))
system.cpu.dcache.overallAvgMissLatency::cpu.mmu.stage2_dtb_walker 55669.764198                       # average overall miss latency ((Cycle/Count))
system.cpu.dcache.overallAvgMissLatency::cpu.mmu.stage2_itb_walker 55669.764198                       # average overall miss latency ((Cycle/Count))
system.cpu.dcache.overallAvgMissLatency::cpu.inst 55669.764198                       # average overall miss latency ((Cycle/Count))
system.cpu.dcache.overallAvgMissLatency::cpu.data 55669.764198                       # average overall miss latency ((Cycle/Count))
system.cpu.dcache.overallAvgMissLatency::l2cache.prefetcher 55669.764198                       # average overall miss latency ((Cycle/Count))
system.cpu.dcache.overallAvgMissLatency::total 55669.764198                       # average overall miss latency ((Cycle/Count))
system.cpu.dcache.blockedCycles::no_mshrs         1968                       # number of cycles access was blocked (Cycle)
system.cpu.dcache.blockedCycles::no_targets         1968                       # number of cycles access was blocked (Cycle)
system.cpu.dcache.blockedCauses::no_mshrs           39                       # number of times access was blocked (Count)
system.cpu.dcache.blockedCauses::no_targets           39                       # number of times access was blocked (Count)
system.cpu.dcache.avgBlocked::no_mshrs      50.461538                       # average number of cycles each access was blocked ((Cycle/Count))
system.cpu.dcache.avgBlocked::no_targets    50.461538                       # average number of cycles each access was blocked ((Cycle/Count))
system.cpu.dcache.writebacks::writebacks           22                       # number of writebacks (Count)
system.cpu.dcache.writebacks::functional           22                       # number of writebacks (Count)
system.cpu.dcache.writebacks::interrupt            22                       # number of writebacks (Count)
system.cpu.dcache.writebacks::cpu.mmu.dtb_walker           22                       # number of writebacks (Count)
system.cpu.dcache.writebacks::cpu.mmu.itb_walker           22                       # number of writebacks (Count)
system.cpu.dcache.writebacks::cpu.mmu.stage2_dtb_walker           22                       # number of writebacks (Count)
system.cpu.dcache.writebacks::cpu.mmu.stage2_itb_walker           22                       # number of writebacks (Count)
system.cpu.dcache.writebacks::cpu.inst             22                       # number of writebacks (Count)
system.cpu.dcache.writebacks::cpu.data             22                       # number of writebacks (Count)
system.cpu.dcache.writebacks::l2cache.prefetcher           22                       # number of writebacks (Count)
system.cpu.dcache.writebacks::total               220                       # number of writebacks (Count)
system.cpu.dcache.demandMshrHits::writebacks          529                       # number of demand (read+write) MSHR hits (Count)
system.cpu.dcache.demandMshrHits::functional          529                       # number of demand (read+write) MSHR hits (Count)
system.cpu.dcache.demandMshrHits::interrupt          529                       # number of demand (read+write) MSHR hits (Count)
system.cpu.dcache.demandMshrHits::cpu.mmu.dtb_walker          529                       # number of demand (read+write) MSHR hits (Count)
system.cpu.dcache.demandMshrHits::cpu.mmu.itb_walker          529                       # number of demand (read+write) MSHR hits (Count)
system.cpu.dcache.demandMshrHits::cpu.mmu.stage2_dtb_walker          529                       # number of demand (read+write) MSHR hits (Count)
system.cpu.dcache.demandMshrHits::cpu.mmu.stage2_itb_walker          529                       # number of demand (read+write) MSHR hits (Count)
system.cpu.dcache.demandMshrHits::cpu.inst          529                       # number of demand (read+write) MSHR hits (Count)
system.cpu.dcache.demandMshrHits::cpu.data          529                       # number of demand (read+write) MSHR hits (Count)
system.cpu.dcache.demandMshrHits::l2cache.prefetcher          529                       # number of demand (read+write) MSHR hits (Count)
system.cpu.dcache.demandMshrHits::total          5290                       # number of demand (read+write) MSHR hits (Count)
system.cpu.dcache.overallMshrHits::writebacks          529                       # number of overall MSHR hits (Count)
system.cpu.dcache.overallMshrHits::functional          529                       # number of overall MSHR hits (Count)
system.cpu.dcache.overallMshrHits::interrupt          529                       # number of overall MSHR hits (Count)
system.cpu.dcache.overallMshrHits::cpu.mmu.dtb_walker          529                       # number of overall MSHR hits (Count)
system.cpu.dcache.overallMshrHits::cpu.mmu.itb_walker          529                       # number of overall MSHR hits (Count)
system.cpu.dcache.overallMshrHits::cpu.mmu.stage2_dtb_walker          529                       # number of overall MSHR hits (Count)
system.cpu.dcache.overallMshrHits::cpu.mmu.stage2_itb_walker          529                       # number of overall MSHR hits (Count)
system.cpu.dcache.overallMshrHits::cpu.inst          529                       # number of overall MSHR hits (Count)
system.cpu.dcache.overallMshrHits::cpu.data          529                       # number of overall MSHR hits (Count)
system.cpu.dcache.overallMshrHits::l2cache.prefetcher          529                       # number of overall MSHR hits (Count)
system.cpu.dcache.overallMshrHits::total         5290                       # number of overall MSHR hits (Count)
system.cpu.dcache.demandMshrMisses::writebacks          281                       # number of demand (read+write) MSHR misses (Count)
system.cpu.dcache.demandMshrMisses::functional          281                       # number of demand (read+write) MSHR misses (Count)
system.cpu.dcache.demandMshrMisses::interrupt          281                       # number of demand (read+write) MSHR misses (Count)
system.cpu.dcache.demandMshrMisses::cpu.mmu.dtb_walker          281                       # number of demand (read+write) MSHR misses (Count)
system.cpu.dcache.demandMshrMisses::cpu.mmu.itb_walker          281                       # number of demand (read+write) MSHR misses (Count)
system.cpu.dcache.demandMshrMisses::cpu.mmu.stage2_dtb_walker          281                       # number of demand (read+write) MSHR misses (Count)
system.cpu.dcache.demandMshrMisses::cpu.mmu.stage2_itb_walker          281                       # number of demand (read+write) MSHR misses (Count)
system.cpu.dcache.demandMshrMisses::cpu.inst          281                       # number of demand (read+write) MSHR misses (Count)
system.cpu.dcache.demandMshrMisses::cpu.data          281                       # number of demand (read+write) MSHR misses (Count)
system.cpu.dcache.demandMshrMisses::l2cache.prefetcher          281                       # number of demand (read+write) MSHR misses (Count)
system.cpu.dcache.demandMshrMisses::total         2810                       # number of demand (read+write) MSHR misses (Count)
system.cpu.dcache.overallMshrMisses::writebacks          281                       # number of overall MSHR misses (Count)
system.cpu.dcache.overallMshrMisses::functional          281                       # number of overall MSHR misses (Count)
system.cpu.dcache.overallMshrMisses::interrupt          281                       # number of overall MSHR misses (Count)
system.cpu.dcache.overallMshrMisses::cpu.mmu.dtb_walker          281                       # number of overall MSHR misses (Count)
system.cpu.dcache.overallMshrMisses::cpu.mmu.itb_walker          281                       # number of overall MSHR misses (Count)
system.cpu.dcache.overallMshrMisses::cpu.mmu.stage2_dtb_walker          281                       # number of overall MSHR misses (Count)
system.cpu.dcache.overallMshrMisses::cpu.mmu.stage2_itb_walker          281                       # number of overall MSHR misses (Count)
system.cpu.dcache.overallMshrMisses::cpu.inst          281                       # number of overall MSHR misses (Count)
system.cpu.dcache.overallMshrMisses::cpu.data          281                       # number of overall MSHR misses (Count)
system.cpu.dcache.overallMshrMisses::l2cache.prefetcher          281                       # number of overall MSHR misses (Count)
system.cpu.dcache.overallMshrMisses::total         2810                       # number of overall MSHR misses (Count)
system.cpu.dcache.demandMshrMissLatency::writebacks     18972961                       # number of demand (read+write) MSHR miss ticks (Tick)
system.cpu.dcache.demandMshrMissLatency::functional     18972961                       # number of demand (read+write) MSHR miss ticks (Tick)
system.cpu.dcache.demandMshrMissLatency::interrupt     18972961                       # number of demand (read+write) MSHR miss ticks (Tick)
system.cpu.dcache.demandMshrMissLatency::cpu.mmu.dtb_walker     18972961                       # number of demand (read+write) MSHR miss ticks (Tick)
system.cpu.dcache.demandMshrMissLatency::cpu.mmu.itb_walker     18972961                       # number of demand (read+write) MSHR miss ticks (Tick)
system.cpu.dcache.demandMshrMissLatency::cpu.mmu.stage2_dtb_walker     18972961                       # number of demand (read+write) MSHR miss ticks (Tick)
system.cpu.dcache.demandMshrMissLatency::cpu.mmu.stage2_itb_walker     18972961                       # number of demand (read+write) MSHR miss ticks (Tick)
system.cpu.dcache.demandMshrMissLatency::cpu.inst     18972961                       # number of demand (read+write) MSHR miss ticks (Tick)
system.cpu.dcache.demandMshrMissLatency::cpu.data     18972961                       # number of demand (read+write) MSHR miss ticks (Tick)
system.cpu.dcache.demandMshrMissLatency::l2cache.prefetcher     18972961                       # number of demand (read+write) MSHR miss ticks (Tick)
system.cpu.dcache.demandMshrMissLatency::total    189729610                       # number of demand (read+write) MSHR miss ticks (Tick)
system.cpu.dcache.overallMshrMissLatency::writebacks     18972961                       # number of overall MSHR miss ticks (Tick)
system.cpu.dcache.overallMshrMissLatency::functional     18972961                       # number of overall MSHR miss ticks (Tick)
system.cpu.dcache.overallMshrMissLatency::interrupt     18972961                       # number of overall MSHR miss ticks (Tick)
system.cpu.dcache.overallMshrMissLatency::cpu.mmu.dtb_walker     18972961                       # number of overall MSHR miss ticks (Tick)
system.cpu.dcache.overallMshrMissLatency::cpu.mmu.itb_walker     18972961                       # number of overall MSHR miss ticks (Tick)
system.cpu.dcache.overallMshrMissLatency::cpu.mmu.stage2_dtb_walker     18972961                       # number of overall MSHR miss ticks (Tick)
system.cpu.dcache.overallMshrMissLatency::cpu.mmu.stage2_itb_walker     18972961                       # number of overall MSHR miss ticks (Tick)
system.cpu.dcache.overallMshrMissLatency::cpu.inst     18972961                       # number of overall MSHR miss ticks (Tick)
system.cpu.dcache.overallMshrMissLatency::cpu.data     18972961                       # number of overall MSHR miss ticks (Tick)
system.cpu.dcache.overallMshrMissLatency::l2cache.prefetcher     18972961                       # number of overall MSHR miss ticks (Tick)
system.cpu.dcache.overallMshrMissLatency::total    189729610                       # number of overall MSHR miss ticks (Tick)
system.cpu.dcache.demandMshrMissRate::writebacks     0.000103                       # mshr miss ratio for demand accesses (Ratio)
system.cpu.dcache.demandMshrMissRate::functional     0.000103                       # mshr miss ratio for demand accesses (Ratio)
system.cpu.dcache.demandMshrMissRate::interrupt     0.000103                       # mshr miss ratio for demand accesses (Ratio)
system.cpu.dcache.demandMshrMissRate::cpu.mmu.dtb_walker     0.000103                       # mshr miss ratio for demand accesses (Ratio)
system.cpu.dcache.demandMshrMissRate::cpu.mmu.itb_walker     0.000103                       # mshr miss ratio for demand accesses (Ratio)
system.cpu.dcache.demandMshrMissRate::cpu.mmu.stage2_dtb_walker     0.000103                       # mshr miss ratio for demand accesses (Ratio)
system.cpu.dcache.demandMshrMissRate::cpu.mmu.stage2_itb_walker     0.000103                       # mshr miss ratio for demand accesses (Ratio)
system.cpu.dcache.demandMshrMissRate::cpu.inst     0.000103                       # mshr miss ratio for demand accesses (Ratio)
system.cpu.dcache.demandMshrMissRate::cpu.data     0.000103                       # mshr miss ratio for demand accesses (Ratio)
system.cpu.dcache.demandMshrMissRate::l2cache.prefetcher     0.000103                       # mshr miss ratio for demand accesses (Ratio)
system.cpu.dcache.demandMshrMissRate::total     0.000103                       # mshr miss ratio for demand accesses (Ratio)
system.cpu.dcache.overallMshrMissRate::writebacks     0.000103                       # mshr miss ratio for overall accesses (Ratio)
system.cpu.dcache.overallMshrMissRate::functional     0.000103                       # mshr miss ratio for overall accesses (Ratio)
system.cpu.dcache.overallMshrMissRate::interrupt     0.000103                       # mshr miss ratio for overall accesses (Ratio)
system.cpu.dcache.overallMshrMissRate::cpu.mmu.dtb_walker     0.000103                       # mshr miss ratio for overall accesses (Ratio)
system.cpu.dcache.overallMshrMissRate::cpu.mmu.itb_walker     0.000103                       # mshr miss ratio for overall accesses (Ratio)
system.cpu.dcache.overallMshrMissRate::cpu.mmu.stage2_dtb_walker     0.000103                       # mshr miss ratio for overall accesses (Ratio)
system.cpu.dcache.overallMshrMissRate::cpu.mmu.stage2_itb_walker     0.000103                       # mshr miss ratio for overall accesses (Ratio)
system.cpu.dcache.overallMshrMissRate::cpu.inst     0.000103                       # mshr miss ratio for overall accesses (Ratio)
system.cpu.dcache.overallMshrMissRate::cpu.data     0.000103                       # mshr miss ratio for overall accesses (Ratio)
system.cpu.dcache.overallMshrMissRate::l2cache.prefetcher     0.000103                       # mshr miss ratio for overall accesses (Ratio)
system.cpu.dcache.overallMshrMissRate::total     0.000103                       # mshr miss ratio for overall accesses (Ratio)
system.cpu.dcache.demandAvgMshrMissLatency::writebacks 67519.434164                       # average overall mshr miss latency ((Cycle/Count))
system.cpu.dcache.demandAvgMshrMissLatency::functional 67519.434164                       # average overall mshr miss latency ((Cycle/Count))
system.cpu.dcache.demandAvgMshrMissLatency::interrupt 67519.434164                       # average overall mshr miss latency ((Cycle/Count))
system.cpu.dcache.demandAvgMshrMissLatency::cpu.mmu.dtb_walker 67519.434164                       # average overall mshr miss latency ((Cycle/Count))
system.cpu.dcache.demandAvgMshrMissLatency::cpu.mmu.itb_walker 67519.434164                       # average overall mshr miss latency ((Cycle/Count))
system.cpu.dcache.demandAvgMshrMissLatency::cpu.mmu.stage2_dtb_walker 67519.434164                       # average overall mshr miss latency ((Cycle/Count))
system.cpu.dcache.demandAvgMshrMissLatency::cpu.mmu.stage2_itb_walker 67519.434164                       # average overall mshr miss latency ((Cycle/Count))
system.cpu.dcache.demandAvgMshrMissLatency::cpu.inst 67519.434164                       # average overall mshr miss latency ((Cycle/Count))
system.cpu.dcache.demandAvgMshrMissLatency::cpu.data 67519.434164                       # average overall mshr miss latency ((Cycle/Count))
system.cpu.dcache.demandAvgMshrMissLatency::l2cache.prefetcher 67519.434164                       # average overall mshr miss latency ((Cycle/Count))
system.cpu.dcache.demandAvgMshrMissLatency::total 67519.434164                       # average overall mshr miss latency ((Cycle/Count))
system.cpu.dcache.overallAvgMshrMissLatency::writebacks 67519.434164                       # average overall mshr miss latency ((Cycle/Count))
system.cpu.dcache.overallAvgMshrMissLatency::functional 67519.434164                       # average overall mshr miss latency ((Cycle/Count))
system.cpu.dcache.overallAvgMshrMissLatency::interrupt 67519.434164                       # average overall mshr miss latency ((Cycle/Count))
system.cpu.dcache.overallAvgMshrMissLatency::cpu.mmu.dtb_walker 67519.434164                       # average overall mshr miss latency ((Cycle/Count))
system.cpu.dcache.overallAvgMshrMissLatency::cpu.mmu.itb_walker 67519.434164                       # average overall mshr miss latency ((Cycle/Count))
system.cpu.dcache.overallAvgMshrMissLatency::cpu.mmu.stage2_dtb_walker 67519.434164                       # average overall mshr miss latency ((Cycle/Count))
system.cpu.dcache.overallAvgMshrMissLatency::cpu.mmu.stage2_itb_walker 67519.434164                       # average overall mshr miss latency ((Cycle/Count))
system.cpu.dcache.overallAvgMshrMissLatency::cpu.inst 67519.434164                       # average overall mshr miss latency ((Cycle/Count))
system.cpu.dcache.overallAvgMshrMissLatency::cpu.data 67519.434164                       # average overall mshr miss latency ((Cycle/Count))
system.cpu.dcache.overallAvgMshrMissLatency::l2cache.prefetcher 67519.434164                       # average overall mshr miss latency ((Cycle/Count))
system.cpu.dcache.overallAvgMshrMissLatency::total 67519.434164                       # average overall mshr miss latency ((Cycle/Count))
system.cpu.dcache.replacements                     22                       # number of replacements (Count)
system.cpu.dcache.LoadLockedReq.hits::writebacks            4                       # number of LoadLockedReq hits (Count)
system.cpu.dcache.LoadLockedReq.hits::functional            4                       # number of LoadLockedReq hits (Count)
system.cpu.dcache.LoadLockedReq.hits::interrupt            4                       # number of LoadLockedReq hits (Count)
system.cpu.dcache.LoadLockedReq.hits::cpu.mmu.dtb_walker            4                       # number of LoadLockedReq hits (Count)
system.cpu.dcache.LoadLockedReq.hits::cpu.mmu.itb_walker            4                       # number of LoadLockedReq hits (Count)
system.cpu.dcache.LoadLockedReq.hits::cpu.mmu.stage2_dtb_walker            4                       # number of LoadLockedReq hits (Count)
system.cpu.dcache.LoadLockedReq.hits::cpu.mmu.stage2_itb_walker            4                       # number of LoadLockedReq hits (Count)
system.cpu.dcache.LoadLockedReq.hits::cpu.inst            4                       # number of LoadLockedReq hits (Count)
system.cpu.dcache.LoadLockedReq.hits::cpu.data            4                       # number of LoadLockedReq hits (Count)
system.cpu.dcache.LoadLockedReq.hits::l2cache.prefetcher            4                       # number of LoadLockedReq hits (Count)
system.cpu.dcache.LoadLockedReq.hits::total           40                       # number of LoadLockedReq hits (Count)
system.cpu.dcache.LoadLockedReq.misses::writebacks            1                       # number of LoadLockedReq misses (Count)
system.cpu.dcache.LoadLockedReq.misses::functional            1                       # number of LoadLockedReq misses (Count)
system.cpu.dcache.LoadLockedReq.misses::interrupt            1                       # number of LoadLockedReq misses (Count)
system.cpu.dcache.LoadLockedReq.misses::cpu.mmu.dtb_walker            1                       # number of LoadLockedReq misses (Count)
system.cpu.dcache.LoadLockedReq.misses::cpu.mmu.itb_walker            1                       # number of LoadLockedReq misses (Count)
system.cpu.dcache.LoadLockedReq.misses::cpu.mmu.stage2_dtb_walker            1                       # number of LoadLockedReq misses (Count)
system.cpu.dcache.LoadLockedReq.misses::cpu.mmu.stage2_itb_walker            1                       # number of LoadLockedReq misses (Count)
system.cpu.dcache.LoadLockedReq.misses::cpu.inst            1                       # number of LoadLockedReq misses (Count)
system.cpu.dcache.LoadLockedReq.misses::cpu.data            1                       # number of LoadLockedReq misses (Count)
system.cpu.dcache.LoadLockedReq.misses::l2cache.prefetcher            1                       # number of LoadLockedReq misses (Count)
system.cpu.dcache.LoadLockedReq.misses::total           10                       # number of LoadLockedReq misses (Count)
system.cpu.dcache.LoadLockedReq.missLatency::writebacks        76440                       # number of LoadLockedReq miss ticks (Tick)
system.cpu.dcache.LoadLockedReq.missLatency::functional        76440                       # number of LoadLockedReq miss ticks (Tick)
system.cpu.dcache.LoadLockedReq.missLatency::interrupt        76440                       # number of LoadLockedReq miss ticks (Tick)
system.cpu.dcache.LoadLockedReq.missLatency::cpu.mmu.dtb_walker        76440                       # number of LoadLockedReq miss ticks (Tick)
system.cpu.dcache.LoadLockedReq.missLatency::cpu.mmu.itb_walker        76440                       # number of LoadLockedReq miss ticks (Tick)
system.cpu.dcache.LoadLockedReq.missLatency::cpu.mmu.stage2_dtb_walker        76440                       # number of LoadLockedReq miss ticks (Tick)
system.cpu.dcache.LoadLockedReq.missLatency::cpu.mmu.stage2_itb_walker        76440                       # number of LoadLockedReq miss ticks (Tick)
system.cpu.dcache.LoadLockedReq.missLatency::cpu.inst        76440                       # number of LoadLockedReq miss ticks (Tick)
system.cpu.dcache.LoadLockedReq.missLatency::cpu.data        76440                       # number of LoadLockedReq miss ticks (Tick)
system.cpu.dcache.LoadLockedReq.missLatency::l2cache.prefetcher        76440                       # number of LoadLockedReq miss ticks (Tick)
[...]
system.mem_ctrl.dram.bytesPerActivate::samples          209                       # Bytes accessed per row activation (Byte)
system.mem_ctrl.dram.bytesPerActivate::mean   256.612440                       # Bytes accessed per row activation (Byte)
system.mem_ctrl.dram.bytesPerActivate::gmean   158.064946                       # Bytes accessed per row activation (Byte)
system.mem_ctrl.dram.bytesPerActivate::stdev   282.824640                       # Bytes accessed per row activation (Byte)
system.mem_ctrl.dram.bytesPerActivate::0-127           88     42.11%     42.11% # Bytes accessed per row activation (Byte)
system.mem_ctrl.dram.bytesPerActivate::128-255           51     24.40%     66.51% # Bytes accessed per row activation (Byte)
system.mem_ctrl.dram.bytesPerActivate::256-383           21     10.05%     76.56% # Bytes accessed per row activation (Byte)
system.mem_ctrl.dram.bytesPerActivate::384-511           16      7.66%     84.21% # Bytes accessed per row activation (Byte)
system.mem_ctrl.dram.bytesPerActivate::512-639            9      4.31%     88.52% # Bytes accessed per row activation (Byte)
system.mem_ctrl.dram.bytesPerActivate::640-767            5      2.39%     90.91% # Bytes accessed per row activation (Byte)
system.mem_ctrl.dram.bytesPerActivate::768-895            1      0.48%     91.39% # Bytes accessed per row activation (Byte)
system.mem_ctrl.dram.bytesPerActivate::896-1023            2      0.96%     92.34% # Bytes accessed per row activation (Byte)
system.mem_ctrl.dram.bytesPerActivate::1024-1151           16      7.66%    100.00% # Bytes accessed per row activation (Byte)
system.mem_ctrl.dram.bytesPerActivate::total          209                       # Bytes accessed per row activation (Byte)
system.mem_ctrl.dram.bytesRead                  56256                       # Total number of bytes read from DRAM (Byte)
system.mem_ctrl.dram.bytesWritten                   0                       # Total number of bytes written to DRAM (Byte)
system.mem_ctrl.dram.avgRdBW                15.262668                       # Average DRAM read bandwidth in MiBytes/s ((Byte/Second))
system.mem_ctrl.dram.avgWrBW                        0                       # Average DRAM write bandwidth in MiBytes/s ((Byte/Second))
system.mem_ctrl.dram.peakBW                  12800.00                       # Theoretical peak bandwidth in MiByte/s ((Byte/Second))
system.mem_ctrl.dram.busUtil                     0.12                       # Data bus utilization in percentage (Ratio)
system.mem_ctrl.dram.busUtilRead                 0.12                       # Data bus utilization in percentage for reads (Ratio)
system.mem_ctrl.dram.busUtilWrite                0.00                       # Data bus utilization in percentage for writes (Ratio)
system.mem_ctrl.dram.pageHitRate                75.31                       # Row buffer hit rate, read and write combined (Ratio)
system.mem_ctrl.dram.power_state.pwrStateResidencyTicks::UNDEFINED   3685856244                       # Cumulative time (in ticks) in various power states (Tick)
system.mem_ctrl.dram.power_state.pwrStateResidencyTicks::ON   3685856244                       # Cumulative time (in ticks) in various power states (Tick)
system.mem_ctrl.dram.power_state.pwrStateResidencyTicks::CLK_GATED   3685856244                       # Cumulative time (in ticks) in various power states (Tick)
system.mem_ctrl.dram.power_state.pwrStateResidencyTicks::SRAM_RETENTION   3685856244                       # Cumulative time (in ticks) in various power states (Tick)
system.mem_ctrl.dram.power_state.pwrStateResidencyTicks::OFF   3685856244                       # Cumulative time (in ticks) in various power states (Tick)
system.mem_ctrl.dram.rank0.actEnergy          1042440                       # Energy for activate commands per rank (pJ) (Joule)
system.mem_ctrl.dram.rank0.preEnergy           542685                       # Energy for precharge commands per rank (pJ) (Joule)
system.mem_ctrl.dram.rank0.readEnergy         3484320                       # Energy for read commands per rank (pJ) (Joule)
system.mem_ctrl.dram.rank0.writeEnergy              0                       # Energy for write commands per rank (pJ) (Joule)
system.mem_ctrl.dram.rank0.refreshEnergy 290724720.000000                       # Energy for refresh commands per rank (pJ) (Joule)
system.mem_ctrl.dram.rank0.actBackEnergy     84619350                       # Energy for active background per rank (pJ) (Joule)
system.mem_ctrl.dram.rank0.preBackEnergy   1344110400                       # Energy for precharge background per rank (pJ) (Joule)
system.mem_ctrl.dram.rank0.actPowerDownEnergy            0                       # Energy for active power-down per rank (pJ) (Joule)
system.mem_ctrl.dram.rank0.prePowerDownEnergy            0                       # Energy for precharge power-down per rank (pJ) (Joule)
system.mem_ctrl.dram.rank0.selfRefreshEnergy            0                       # Energy for self refresh per rank (pJ) (Joule)
system.mem_ctrl.dram.rank0.totalEnergy     1724523915                       # Total energy per rank (pJ) (Joule)
system.mem_ctrl.dram.rank0.averagePower    467.876065                       # Core power per rank (mW) (Watt)
system.mem_ctrl.dram.rank0.totalIdleTime            0                       # Total Idle time Per DRAM Rank (Tick)
system.mem_ctrl.dram.rank0.pwrStateTime::IDLE   3685856244                       # Time in different power states (Tick)
system.mem_ctrl.dram.rank0.pwrStateTime::REF   3685856244                       # Time in different power states (Tick)
system.mem_ctrl.dram.rank0.pwrStateTime::SREF   3685856244                       # Time in different power states (Tick)
system.mem_ctrl.dram.rank0.pwrStateTime::PRE_PDN   3685856244                       # Time in different power states (Tick)
system.mem_ctrl.dram.rank0.pwrStateTime::ACT   3685856244                       # Time in different power states (Tick)
system.mem_ctrl.dram.rank0.pwrStateTime::ACT_PDN   3685856244                       # Time in different power states (Tick)
system.mem_ctrl.dram.rank1.actEnergy           506940                       # Energy for activate commands per rank (pJ) (Joule)
system.mem_ctrl.dram.rank1.preEnergy           250470                       # Energy for precharge commands per rank (pJ) (Joule)
system.mem_ctrl.dram.rank1.readEnergy         2791740                       # Energy for read commands per rank (pJ) (Joule)
system.mem_ctrl.dram.rank1.writeEnergy              0                       # Energy for write commands per rank (pJ) (Joule)
system.mem_ctrl.dram.rank1.refreshEnergy 290724720.000000                       # Energy for refresh commands per rank (pJ) (Joule)
system.mem_ctrl.dram.rank1.actBackEnergy     78833850                       # Energy for active background per rank (pJ) (Joule)
system.mem_ctrl.dram.rank1.preBackEnergy   1348982400                       # Energy for precharge background per rank (pJ) (Joule)
system.mem_ctrl.dram.rank1.actPowerDownEnergy            0                       # Energy for active power-down per rank (pJ) (Joule)
system.mem_ctrl.dram.rank1.prePowerDownEnergy            0                       # Energy for precharge power-down per rank (pJ) (Joule)
system.mem_ctrl.dram.rank1.selfRefreshEnergy            0                       # Energy for self refresh per rank (pJ) (Joule)
system.mem_ctrl.dram.rank1.totalEnergy     1722090120                       # Total energy per rank (pJ) (Joule)
system.mem_ctrl.dram.rank1.averagePower    467.215758                       # Core power per rank (mW) (Watt)
system.mem_ctrl.dram.rank1.totalIdleTime            0                       # Total Idle time Per DRAM Rank (Tick)
system.mem_ctrl.dram.rank1.pwrStateTime::IDLE   3685856244                       # Time in different power states (Tick)
system.mem_ctrl.dram.rank1.pwrStateTime::REF   3685856244                       # Time in different power states (Tick)
system.mem_ctrl.dram.rank1.pwrStateTime::SREF   3685856244                       # Time in different power states (Tick)
system.mem_ctrl.dram.rank1.pwrStateTime::PRE_PDN   3685856244                       # Time in different power states (Tick)
system.mem_ctrl.dram.rank1.pwrStateTime::ACT   3685856244                       # Time in different power states (Tick)
system.mem_ctrl.dram.rank1.pwrStateTime::ACT_PDN   3685856244                       # Time in different power states (Tick)
system.mem_ctrl.power_state.pwrStateResidencyTicks::UNDEFINED   3685856244                       # Cumulative time (in ticks) in various power states (Tick)
system.mem_ctrl.power_state.pwrStateResidencyTicks::ON   3685856244                       # Cumulative time (in ticks) in various power states (Tick)
system.mem_ctrl.power_state.pwrStateResidencyTicks::CLK_GATED   3685856244                       # Cumulative time (in ticks) in various power states (Tick)
system.mem_ctrl.power_state.pwrStateResidencyTicks::SRAM_RETENTION   3685856244                       # Cumulative time (in ticks) in various power states (Tick)
system.mem_ctrl.power_state.pwrStateResidencyTicks::OFF   3685856244                       # Cumulative time (in ticks) in various power states (Tick)
system.membus.transDist::InvalidCmd              1793                       # Transaction distribution (Count)
system.membus.transDist::ReadReq                 1793                       # Transaction distribution (Count)
system.membus.transDist::ReadResp                1793                       # Transaction distribution (Count)
system.membus.transDist::ReadRespWithInvalidate         1793                       # Transaction distribution (Count)
system.membus.transDist::WriteReq                1793                       # Transaction distribution (Count)
system.membus.transDist::WriteResp               1793                       # Transaction distribution (Count)
system.membus.transDist::WriteCompleteResp         1793                       # Transaction distribution (Count)
system.membus.transDist::WritebackDirty          1793                       # Transaction distribution (Count)
system.membus.transDist::WritebackClean          1793                       # Transaction distribution (Count)
system.membus.transDist::WriteClean              1793                       # Transaction distribution (Count)
system.membus.transDist::CleanEvict              1793                       # Transaction distribution (Count)
system.membus.transDist::SoftPFReq               1793                       # Transaction distribution (Count)
system.membus.transDist::SoftPFExReq             1793                       # Transaction distribution (Count)
system.membus.transDist::HardPFReq               1793                       # Transaction distribution (Count)
system.membus.transDist::SoftPFResp              1793                       # Transaction distribution (Count)
system.membus.transDist::HardPFResp              1793                       # Transaction distribution (Count)
system.membus.transDist::WriteLineReq            1793                       # Transaction distribution (Count)
system.membus.transDist::UpgradeReq              1793                       # Transaction distribution (Count)
system.membus.transDist::SCUpgradeReq            1793                       # Transaction distribution (Count)
system.membus.transDist::UpgradeResp             1793                       # Transaction distribution (Count)
system.membus.transDist::SCUpgradeFailReq         1793                       # Transaction distribution (Count)
system.membus.transDist::UpgradeFailResp         1793                       # Transaction distribution (Count)
system.membus.transDist::ReadExReq               1793                       # Transaction distribution (Count)
system.membus.transDist::ReadExResp              1793                       # Transaction distribution (Count)
system.membus.transDist::ReadCleanReq            1793                       # Transaction distribution (Count)
system.membus.transDist::ReadSharedReq           1793                       # Transaction distribution (Count)
system.membus.transDist::LoadLockedReq           1793                       # Transaction distribution (Count)
system.membus.transDist::StoreCondReq            1793                       # Transaction distribution (Count)
system.membus.transDist::StoreCondFailReq         1793                       # Transaction distribution (Count)
system.membus.transDist::StoreCondResp           1793                       # Transaction distribution (Count)
system.membus.transDist::SwapReq                 1793                       # Transaction distribution (Count)
system.membus.transDist::SwapResp                1793                       # Transaction distribution (Count)
system.membus.transDist::Deprecated_MessageReq         1793                       # Transaction distribution (Count)
system.membus.transDist::Deprecated_MessageResp         1793                       # Transaction distribution (Count)
system.membus.transDist::MemFenceReq             1793                       # Transaction distribution (Count)
system.membus.transDist::MemSyncReq              1793                       # Transaction distribution (Count)
system.membus.transDist::MemSyncResp             1793                       # Transaction distribution (Count)
system.membus.transDist::MemFenceResp            1793                       # Transaction distribution (Count)
system.membus.transDist::CleanSharedReq          1793                       # Transaction distribution (Count)
system.membus.transDist::CleanSharedResp         1793                       # Transaction distribution (Count)
system.membus.transDist::CleanInvalidReq         1793                       # Transaction distribution (Count)
system.membus.transDist::CleanInvalidResp         1793                       # Transaction distribution (Count)
system.membus.transDist::InvalidDestError         1793                       # Transaction distribution (Count)
system.membus.transDist::BadAddressError         1793                       # Transaction distribution (Count)
system.membus.transDist::FunctionalReadError         1793                       # Transaction distribution (Count)
system.membus.transDist::FunctionalWriteError         1793                       # Transaction distribution (Count)
system.membus.transDist::PrintReq                1793                       # Transaction distribution (Count)
system.membus.transDist::FlushReq                1793                       # Transaction distribution (Count)
system.membus.transDist::InvalidateReq           1793                       # Transaction distribution (Count)
system.membus.transDist::InvalidateResp          1793                       # Transaction distribution (Count)
system.membus.transDist::HTMReq                  1793                       # Transaction distribution (Count)
system.membus.transDist::HTMReqResp              1793                       # Transaction distribution (Count)
system.membus.transDist::HTMAbort                1793                       # Transaction distribution (Count)
system.membus.pktCount_system.l2cache.mem_side_port::system.mem_ctrl.port         1793                       # Packet count per connected requestor and responder (Count)
system.membus.pktCount_system_port::system.mem_ctrl.port         1793                       # Packet count per connected requestor and responder (Count)
system.membus.pktCount::total                    3586                       # Packet count per connected requestor and responder (Count)
system.membus.pktSize_system.l2cache.mem_side_port::system.mem_ctrl.port        56192                       # Cumulative packet size per connected requestor and responder (Byte)
system.membus.pktSize_system_port::system.mem_ctrl.port        56192                       # Cumulative packet size per connected requestor and responder (Byte)
system.membus.pktSize::total                   112384                       # Cumulative packet size per connected requestor and responder (Byte)
system.membus.snoops                                0                       # Total snoops (Count)
system.membus.snoopTraffic                          0                       # Total snoop traffic (Byte)
system.membus.snoopFanout::samples                915                       # Request fanout histogram (Count)
system.membus.snoopFanout::mean                     0                       # Request fanout histogram (Count)
system.membus.snoopFanout::stdev                    0                       # Request fanout histogram (Count)
system.membus.snoopFanout::underflows               0      0.00%      0.00% # Request fanout histogram (Count)
system.membus.snoopFanout::0                      915    100.00%    100.00% # Request fanout histogram (Count)
system.membus.snoopFanout::1                        0      0.00%    100.00% # Request fanout histogram (Count)
system.membus.snoopFanout::overflows                0      0.00%    100.00% # Request fanout histogram (Count)
system.membus.snoopFanout::min_value                0                       # Request fanout histogram (Count)
system.membus.snoopFanout::max_value                0                       # Request fanout histogram (Count)
system.membus.snoopFanout::total                  915                       # Request fanout histogram (Count)
system.membus.power_state.pwrStateResidencyTicks::UNDEFINED   3685856244                       # Cumulative time (in ticks) in various power states (Tick)
system.membus.power_state.pwrStateResidencyTicks::ON   3685856244                       # Cumulative time (in ticks) in various power states (Tick)
system.membus.power_state.pwrStateResidencyTicks::CLK_GATED   3685856244                       # Cumulative time (in ticks) in various power states (Tick)
system.membus.power_state.pwrStateResidencyTicks::SRAM_RETENTION   3685856244                       # Cumulative time (in ticks) in various power states (Tick)
system.membus.power_state.pwrStateResidencyTicks::OFF   3685856244                       # Cumulative time (in ticks) in various power states (Tick)
system.membus.reqLayer0.occupancy              538020                       # Layer occupancy (ticks) (Tick)
system.membus.reqLayer0.utilization               0.0                       # Layer utilization (Ratio)
system.membus.respLayer0.occupancy            2732620                       # Layer occupancy (ticks) (Tick)
system.membus.respLayer0.utilization              0.0                       # Layer utilization (Ratio)
system.membus.snoop_filter.totRequests            915                       # Total number of requests made to the snoop filter. (Count)
system.membus.snoop_filter.hitSingleRequests            2                       # Number of requests hitting in the snoop filter with a single holder of the requested data. (Count)
system.membus.snoop_filter.hitMultiRequests            0                       # Number of requests hitting in the snoop filter with multiple (>1) holders of the requested data. (Count)
system.membus.snoop_filter.totSnoops                0                       # Total number of snoops made to the snoop filter. (Count)
system.membus.snoop_filter.hitSingleSnoops            0                       # Number of snoops hitting in the snoop filter with a single holder of the requested data. (Count)
system.membus.snoop_filter.hitMultiSnoops            0                       # Number of snoops hitting in the snoop filter with multiple (>1) holders of the requested data. (Count)
system.workload.inst.arm                            0                       # number of arm instructions executed (Count)
system.workload.inst.quiesce                        0                       # number of quiesce instructions executed (Count)

---------- End Simulation Statistics   ----------
